MODEL 1
REMARK VINA RESULT:    -0.001      0.000      0.000
REMARK INTER + INTRA:          -1.663
REMARK INTER:                   0.000
REMARK INTRA:                  -1.663
REMARK UNBOUND:                -1.662
REMARK  6 active torsions:
REMARK  status: ('A' for Active; 'I' for Inactive)
REMARK    1  A    between atoms: C03_1  and  C10_8 
REMARK    2  A    between atoms: C04_2  and  C08_6 
REMARK    3  A    between atoms: C15_13  and  C18_16 
REMARK    4  A    between atoms: C18_16  and  C20_18 
REMARK    5  A    between atoms: C20_18  and  C21_19 
REMARK    6  A    between atoms: C21_19  and  C22_20 
ROOT
ATOM      1  C08 CBD B1001      -3.588  -0.977   4.464  1.00 27.96     0.033 A 
ATOM      2  C11 CBD B1001      -3.814  -2.044   5.326  1.00 27.96     0.129 A 
ATOM      3  C12 CBD B1001      -4.579   0.004   4.313  1.00 27.96     0.129 A 
ATOM      4  C15 CBD B1001      -6.014  -1.222   5.839  1.00 27.96    -0.018 A 
ATOM      5  C16 CBD B1001      -5.023  -2.182   6.001  1.00 27.96     0.023 A 
ATOM      6  C17 CBD B1001      -5.794  -0.132   4.994  1.00 27.96     0.023 A 
ATOM      7  O01 CBD B1001      -2.805  -3.005   5.478  1.00 27.96    -0.190 OA
ATOM      8  O02 CBD B1001      -4.402   1.116   3.475  1.00 27.96    -0.190 OA
ENDROOT
BRANCH   1   9
ATOM      9  C04 CBD B1001      -2.181  -0.963   3.820  1.00 27.96     0.051 C 
ATOM     10  C07 CBD B1001      -1.442   0.133   4.556  1.00 27.96    -0.030 C 
ATOM     11  C09 CBD B1001      -0.137   0.090   4.446  1.00 27.96    -0.048 C 
ATOM     12  C06 CBD B1001       0.501  -0.152   3.076  1.00 27.96     0.022 C 
ATOM     13  C13 CBD B1001       0.630  -0.391   5.674  1.00 27.96     0.026 C 
ATOM     14  C05 CBD B1001      -0.447  -0.785   2.035  1.00 27.96     0.009 C 
ATOM     15  C03 CBD B1001      -1.952  -0.659   2.334  1.00 27.96     0.027 C 
BRANCH  15  16
ATOM     16  C10 CBD B1001      -2.646  -1.634   1.377  1.00 27.96    -0.044 C 
ATOM     17  C19 CBD B1001      -2.097  -2.818   1.095  1.00 27.96    -0.009 C 
ATOM     18  C14 CBD B1001      -3.970  -1.217   0.708  1.00 27.96     0.026 C 
ENDBRANCH  15  16
ENDBRANCH   1   9
BRANCH   4  19
ATOM     19  C18 CBD B1001      -7.351  -1.394   6.601  1.00 27.96     0.026 C 
BRANCH  19  20
ATOM     20  C20 CBD B1001      -8.015  -2.725   6.158  1.00 27.96     0.005 C 
BRANCH  20  21
ATOM     21  C21 CBD B1001      -8.496  -2.618   4.683  1.00 27.96     0.000 C 
BRANCH  21  22
ATOM     22  C22 CBD B1001      -7.817  -3.726   3.843  1.00 27.96     0.000 C 
ATOM     23  C23 CBD B1001      -6.861  -3.073   2.816  1.00 27.96     0.000 C 
ENDBRANCH  21  22
ENDBRANCH  20  21
ENDBRANCH  19  20
ENDBRANCH   4  19
TORSDOF 6
ENDMDL
MODEL 2
REMARK VINA RESULT:    -0.000      5.547      7.621
REMARK INTER + INTRA:          -1.663
REMARK INTER:                   0.000
REMARK INTRA:                  -1.663
REMARK UNBOUND:                -1.662
REMARK  6 active torsions:
REMARK  status: ('A' for Active; 'I' for Inactive)
REMARK    1  A    between atoms: C03_1  and  C10_8 
REMARK    2  A    between atoms: C04_2  and  C08_6 
REMARK    3  A    between atoms: C15_13  and  C18_16 
REMARK    4  A    between atoms: C18_16  and  C20_18 
REMARK    5  A    between atoms: C20_18  and  C21_19 
REMARK    6  A    between atoms: C21_19  and  C22_20 
ROOT
ATOM      1  C08 CBD B1001      -2.036   4.689   0.367  1.00 27.96     0.033 A 
ATOM      2  C11 CBD B1001      -3.157   5.490   0.546  1.00 27.96     0.129 A 
ATOM      3  C12 CBD B1001      -2.020   3.756  -0.680  1.00 27.96     0.129 A 
ATOM      4  C15 CBD B1001      -4.276   4.413  -1.287  1.00 27.96    -0.018 A 
ATOM      5  C16 CBD B1001      -4.281   5.349  -0.261  1.00 27.96     0.023 A 
ATOM      6  C17 CBD B1001      -3.150   3.614  -1.495  1.00 27.96     0.023 A 
ATOM      7  O01 CBD B1001      -3.147   6.430   1.587  1.00 27.96    -0.190 OA
ATOM      8  O02 CBD B1001      -0.910   2.933  -0.926  1.00 27.96    -0.190 OA
ENDROOT
BRANCH   1   9
ATOM      9  C04 CBD B1001      -0.867   5.000   1.333  1.00 27.96     0.051 C 
ATOM     10  C07 CBD B1001       0.144   5.730   0.476  1.00 27.96    -0.030 C 
ATOM     11  C09 CBD B1001       1.043   6.411   1.142  1.00 27.96    -0.048 C 
ATOM     12  C06 CBD B1001       1.734   5.776   2.351  1.00 27.96     0.022 C 
ATOM     13  C13 CBD B1001       0.880   7.928   1.142  1.00 27.96     0.026 C 
ATOM     14  C05 CBD B1001       0.979   4.573   2.956  1.00 27.96     0.009 C 
ATOM     15  C03 CBD B1001      -0.060   3.903   2.039  1.00 27.96     0.027 C 
BRANCH  15  16
ATOM     16  C10 CBD B1001      -0.894   2.997   2.952  1.00 27.96    -0.044 C 
ATOM     17  C19 CBD B1001      -1.216   3.387   4.187  1.00 27.96    -0.009 C 
ATOM     18  C14 CBD B1001      -1.324   1.607   2.443  1.00 27.96     0.026 C 
ENDBRANCH  15  16
ENDBRANCH   1   9
BRANCH   4  19
ATOM     19  C18 CBD B1001      -5.537   4.272  -2.176  1.00 27.96     0.026 C 
BRANCH  19  20
ATOM     20  C20 CBD B1001      -6.741   3.871  -1.282  1.00 27.96     0.005 C 
BRANCH  20  21
ATOM     21  C21 CBD B1001      -6.555   2.419  -0.755  1.00 27.96     0.000 C 
BRANCH  21  22
ATOM     22  C22 CBD B1001      -6.570   2.432   0.792  1.00 27.96     0.000 C 
ATOM     23  C23 CBD B1001      -5.172   2.027   1.319  1.00 27.96     0.000 C 
ENDBRANCH  21  22
ENDBRANCH  20  21
ENDBRANCH  19  20
ENDBRANCH   4  19
TORSDOF 6
ENDMDL
MODEL 3
REMARK VINA RESULT:    -0.000      1.981      6.346
REMARK INTER + INTRA:          -1.663
REMARK INTER:                   0.000
REMARK INTRA:                  -1.663
REMARK UNBOUND:                -1.662
REMARK  6 active torsions:
REMARK  status: ('A' for Active; 'I' for Inactive)
REMARK    1  A    between atoms: C03_1  and  C10_8 
REMARK    2  A    between atoms: C04_2  and  C08_6 
REMARK    3  A    between atoms: C15_13  and  C18_16 
REMARK    4  A    between atoms: C18_16  and  C20_18 
REMARK    5  A    between atoms: C20_18  and  C21_19 
REMARK    6  A    between atoms: C21_19  and  C22_20 
ROOT
ATOM      1  C08 CBD B1001      -4.071  -3.005   4.826  1.00 27.96     0.033 A 
ATOM      2  C11 CBD B1001      -3.159  -2.597   5.792  1.00 27.96     0.129 A 
ATOM      3  C12 CBD B1001      -3.602  -3.625   3.658  1.00 27.96     0.129 A 
ATOM      4  C15 CBD B1001      -1.320  -3.341   4.435  1.00 27.96    -0.018 A 
ATOM      5  C16 CBD B1001      -1.790  -2.746   5.599  1.00 27.96     0.023 A 
ATOM      6  C17 CBD B1001      -2.224  -3.778   3.464  1.00 27.96     0.023 A 
ATOM      7  O01 CBD B1001      -3.648  -1.997   6.961  1.00 27.96    -0.190 OA
ATOM      8  O02 CBD B1001      -4.473  -4.078   2.656  1.00 27.96    -0.190 OA
ENDROOT
BRANCH   1   9
ATOM      9  C04 CBD B1001      -5.554  -2.792   5.216  1.00 27.96     0.051 C 
ATOM     10  C07 CBD B1001      -6.057  -4.179   5.551  1.00 27.96    -0.030 C 
ATOM     11  C09 CBD B1001      -7.163  -4.211   6.253  1.00 27.96    -0.048 C 
ATOM     12  C06 CBD B1001      -8.332  -3.302   5.868  1.00 27.96     0.022 C 
ATOM     13  C13 CBD B1001      -7.020  -4.588   7.724  1.00 27.96     0.026 C 
ATOM     14  C05 CBD B1001      -7.940  -2.101   4.981  1.00 27.96     0.009 C 
ATOM     15  C03 CBD B1001      -6.594  -2.224   4.243  1.00 27.96     0.027 C 
BRANCH  15  16
ATOM     16  C10 CBD B1001      -6.274  -0.815   3.731  1.00 27.96    -0.044 C 
ATOM     17  C19 CBD B1001      -6.557   0.259   4.471  1.00 27.96    -0.009 C 
ATOM     18  C14 CBD B1001      -5.657  -0.646   2.329  1.00 27.96     0.026 C 
ENDBRANCH  15  16
ENDBRANCH   1   9
BRANCH   4  19
ATOM     19  C18 CBD B1001       0.208  -3.499   4.241  1.00 27.96     0.026 C 
BRANCH  19  20
ATOM     20  C20 CBD B1001       0.865  -2.093   4.258  1.00 27.96     0.005 C 
BRANCH  20  21
ATOM     21  C21 CBD B1001       0.460  -1.298   2.984  1.00 27.96     0.000 C 
BRANCH  21  22
ATOM     22  C22 CBD B1001      -0.241   0.016   3.404  1.00 27.96     0.000 C 
ATOM     23  C23 CBD B1001      -1.723  -0.033   2.961  1.00 27.96     0.000 C 
ENDBRANCH  21  22
ENDBRANCH  20  21
ENDBRANCH  19  20
ENDBRANCH   4  19
TORSDOF 6
ENDMDL
MODEL 4
REMARK VINA RESULT:    -0.000      6.276      9.117
REMARK INTER + INTRA:          -1.663
REMARK INTER:                   0.000
REMARK INTRA:                  -1.663
REMARK UNBOUND:                -1.662
REMARK  6 active torsions:
REMARK  status: ('A' for Active; 'I' for Inactive)
REMARK    1  A    between atoms: C03_1  and  C10_8 
REMARK    2  A    between atoms: C04_2  and  C08_6 
REMARK    3  A    between atoms: C15_13  and  C18_16 
REMARK    4  A    between atoms: C18_16  and  C20_18 
REMARK    5  A    between atoms: C20_18  and  C21_19 
REMARK    6  A    between atoms: C21_19  and  C22_20 
ROOT
ATOM      1  C08 CBD B1001      -4.516   3.978  -0.078  1.00 27.96     0.033 A 
ATOM      2  C11 CBD B1001      -3.248   3.807  -0.621  1.00 27.96     0.129 A 
ATOM      3  C12 CBD B1001      -5.639   3.591  -0.824  1.00 27.96     0.129 A 
ATOM      4  C15 CBD B1001      -4.187   2.943  -2.658  1.00 27.96    -0.018 A 
ATOM      5  C16 CBD B1001      -3.076   3.308  -1.908  1.00 27.96     0.023 A 
ATOM      6  C17 CBD B1001      -5.467   3.087  -2.119  1.00 27.96     0.023 A 
ATOM      7  O01 CBD B1001      -2.137   4.181   0.147  1.00 27.96    -0.190 OA
ATOM      8  O02 CBD B1001      -6.944   3.719  -0.323  1.00 27.96    -0.190 OA
ENDROOT
BRANCH   1   9
ATOM      9  C04 CBD B1001      -4.523   4.515   1.373  1.00 27.96     0.051 C 
ATOM     10  C07 CBD B1001      -4.877   3.311   2.218  1.00 27.96    -0.030 C 
ATOM     11  C09 CBD B1001      -4.588   3.425   3.491  1.00 27.96    -0.048 C 
ATOM     12  C06 CBD B1001      -4.936   4.715   4.236  1.00 27.96     0.022 C 
ATOM     13  C13 CBD B1001      -3.382   2.632   3.984  1.00 27.96     0.026 C 
ATOM     14  C05 CBD B1001      -5.171   5.935   3.320  1.00 27.96     0.009 C 
ATOM     15  C03 CBD B1001      -5.478   5.618   1.845  1.00 27.96     0.027 C 
BRANCH  15  16
ATOM     16  C10 CBD B1001      -5.327   6.947   1.096  1.00 27.96    -0.044 C 
ATOM     17  C19 CBD B1001      -4.362   7.807   1.427  1.00 27.96    -0.009 C 
ATOM     18  C14 CBD B1001      -6.327   7.299  -0.022  1.00 27.96     0.026 C 
ENDBRANCH  15  16
ENDBRANCH   1   9
BRANCH   4  19
ATOM     19  C18 CBD B1001      -3.974   2.388  -4.088  1.00 27.96     0.026 C 
BRANCH  19  20
ATOM     20  C20 CBD B1001      -3.258   3.466  -4.944  1.00 27.96     0.005 C 
BRANCH  20  21
ATOM     21  C21 CBD B1001      -4.214   4.665  -5.204  1.00 27.96     0.000 C 
BRANCH  21  22
ATOM     22  C22 CBD B1001      -3.566   5.961  -4.661  1.00 27.96     0.000 C 
ATOM     23  C23 CBD B1001      -4.403   6.489  -3.470  1.00 27.96     0.000 C 
ENDBRANCH  21  22
ENDBRANCH  20  21
ENDBRANCH  19  20
ENDBRANCH   4  19
TORSDOF 6
ENDMDL
MODEL 5
REMARK VINA RESULT:    -0.000      4.872      7.888
REMARK INTER + INTRA:          -1.663
REMARK INTER:                   0.000
REMARK INTRA:                  -1.663
REMARK UNBOUND:                -1.662
REMARK  6 active torsions:
REMARK  status: ('A' for Active; 'I' for Inactive)
REMARK    1  A    between atoms: C03_1  and  C10_8 
REMARK    2  A    between atoms: C04_2  and  C08_6 
REMARK    3  A    between atoms: C15_13  and  C18_16 
REMARK    4  A    between atoms: C18_16  and  C20_18 
REMARK    5  A    between atoms: C20_18  and  C21_19 
REMARK    6  A    between atoms: C21_19  and  C22_20 
ROOT
ATOM      1  C08 CBD B1001       1.378   2.988   1.110  1.00 27.96     0.033 A 
ATOM      2  C11 CBD B1001       0.585   3.995   1.648  1.00 27.96     0.129 A 
ATOM      3  C12 CBD B1001       0.790   1.763   0.765  1.00 27.96     0.129 A 
ATOM      4  C15 CBD B1001      -1.350   2.572   1.574  1.00 27.96    -0.018 A 
ATOM      5  C16 CBD B1001      -0.768   3.791   1.897  1.00 27.96     0.023 A 
ATOM      6  C17 CBD B1001      -0.573   1.557   1.013  1.00 27.96     0.023 A 
ATOM      7  O01 CBD B1001       1.187   5.220   1.970  1.00 27.96    -0.190 OA
ATOM      8  O02 CBD B1001       1.533   0.715   0.199  1.00 27.96    -0.190 OA
ENDROOT
BRANCH   1   9
ATOM      9  C04 CBD B1001       2.852   3.394   0.872  1.00 27.96     0.051 C 
ATOM     10  C07 CBD B1001       2.954   3.578  -0.626  1.00 27.96    -0.030 C 
ATOM     11  C09 CBD B1001       3.992   4.270  -1.029  1.00 27.96    -0.048 C 
ATOM     12  C06 CBD B1001       5.373   3.981  -0.436  1.00 27.96     0.022 C 
ATOM     13  C13 CBD B1001       3.714   5.693  -1.502  1.00 27.96     0.026 C 
ATOM     14  C05 CBD B1001       5.342   3.227   0.912  1.00 27.96     0.009 C 
ATOM     15  C03 CBD B1001       4.033   2.485   1.235  1.00 27.96     0.027 C 
BRANCH  15  16
ATOM     16  C10 CBD B1001       4.118   2.126   2.723  1.00 27.96    -0.044 C 
ATOM     17  C19 CBD B1001       4.661   2.975   3.597  1.00 27.96    -0.009 C 
ATOM     18  C14 CBD B1001       3.606   0.751   3.196  1.00 27.96     0.026 C 
ENDBRANCH  15  16
ENDBRANCH   1   9
BRANCH   4  19
ATOM     19  C18 CBD B1001      -2.859   2.366   1.858  1.00 27.96     0.026 C 
BRANCH  19  20
ATOM     20  C20 CBD B1001      -3.112   2.535   3.379  1.00 27.96     0.005 C 
BRANCH  20  21
ATOM     21  C21 CBD B1001      -2.475   1.351   4.162  1.00 27.96     0.000 C 
BRANCH  21  22
ATOM     22  C22 CBD B1001      -1.458   1.907   5.188  1.00 27.96     0.000 C 
ATOM     23  C23 CBD B1001      -0.032   1.459   4.785  1.00 27.96     0.000 C 
ENDBRANCH  21  22
ENDBRANCH  20  21
ENDBRANCH  19  20
ENDBRANCH   4  19
TORSDOF 6
ENDMDL
MODEL 6
REMARK VINA RESULT:    -0.000      7.604      9.555
REMARK INTER + INTRA:          -1.663
REMARK INTER:                   0.000
REMARK INTRA:                  -1.663
REMARK UNBOUND:                -1.662
REMARK  6 active torsions:
REMARK  status: ('A' for Active; 'I' for Inactive)
REMARK    1  A    between atoms: C03_1  and  C10_8 
REMARK    2  A    between atoms: C04_2  and  C08_6 
REMARK    3  A    between atoms: C15_13  and  C18_16 
REMARK    4  A    between atoms: C18_16  and  C20_18 
REMARK    5  A    between atoms: C20_18  and  C21_19 
REMARK    6  A    between atoms: C21_19  and  C22_20 
ROOT
ATOM      1  C08 CBD B1001      -4.302   6.020  -1.219  1.00 27.96     0.033 A 
ATOM      2  C11 CBD B1001      -3.264   6.311  -0.342  1.00 27.96     0.129 A 
ATOM      3  C12 CBD B1001      -5.422   5.321  -0.748  1.00 27.96     0.129 A 
ATOM      4  C15 CBD B1001      -4.394   5.167   1.445  1.00 27.96    -0.018 A 
ATOM      5  C16 CBD B1001      -3.294   5.877   0.979  1.00 27.96     0.023 A 
ATOM      6  C17 CBD B1001      -5.456   4.886   0.582  1.00 27.96     0.023 A 
ATOM      7  O01 CBD B1001      -2.160   7.027  -0.826  1.00 27.96    -0.190 OA
ATOM      8  O02 CBD B1001      -6.511   5.017  -1.579  1.00 27.96    -0.190 OA
ENDROOT
BRANCH   1   9
ATOM      9  C04 CBD B1001      -4.118   6.604  -2.641  1.00 27.96     0.051 C 
ATOM     10  C07 CBD B1001      -5.077   7.774  -2.694  1.00 27.96    -0.030 C 
ATOM     11  C09 CBD B1001      -4.841   8.638  -3.649  1.00 27.96    -0.048 C 
ATOM     12  C06 CBD B1001      -4.534   8.142  -5.064  1.00 27.96     0.022 C 
ATOM     13  C13 CBD B1001      -4.227   9.968  -3.222  1.00 27.96     0.026 C 
ATOM     14  C05 CBD B1001      -4.071   6.671  -5.135  1.00 27.96     0.009 C 
ATOM     15  C03 CBD B1001      -4.414   5.800  -3.913  1.00 27.96     0.027 C 
BRANCH  15  16
ATOM     16  C10 CBD B1001      -3.573   4.527  -4.063  1.00 27.96    -0.044 C 
ATOM     17  C19 CBD B1001      -2.327   4.587  -4.537  1.00 27.96    -0.009 C 
ATOM     18  C14 CBD B1001      -4.197   3.165  -3.699  1.00 27.96     0.026 C 
ENDBRANCH  15  16
ENDBRANCH   1   9
BRANCH   4  19
ATOM     19  C18 CBD B1001      -4.409   4.694   2.919  1.00 27.96     0.026 C 
BRANCH  19  20
ATOM     20  C20 CBD B1001      -3.201   3.750   3.157  1.00 27.96     0.005 C 
BRANCH  20  21
ATOM     21  C21 CBD B1001      -3.408   2.413   2.389  1.00 27.96     0.000 C 
BRANCH  21  22
ATOM     22  C22 CBD B1001      -2.228   2.198   1.412  1.00 27.96     0.000 C 
ATOM     23  C23 CBD B1001      -2.751   2.274  -0.043  1.00 27.96     0.000 C 
ENDBRANCH  21  22
ENDBRANCH  20  21
ENDBRANCH  19  20
ENDBRANCH   4  19
TORSDOF 6
ENDMDL
MODEL 7
REMARK VINA RESULT:    -0.000      4.545      7.911
REMARK INTER + INTRA:          -1.663
REMARK INTER:                   0.000
REMARK INTRA:                  -1.663
REMARK UNBOUND:                -1.662
REMARK  6 active torsions:
REMARK  status: ('A' for Active; 'I' for Inactive)
REMARK    1  A    between atoms: C03_1  and  C10_8 
REMARK    2  A    between atoms: C04_2  and  C08_6 
REMARK    3  A    between atoms: C15_13  and  C18_16 
REMARK    4  A    between atoms: C18_16  and  C20_18 
REMARK    5  A    between atoms: C20_18  and  C21_19 
REMARK    6  A    between atoms: C21_19  and  C22_20 
ROOT
ATOM      1  C08 CBD B1001      -6.482   3.157   3.231  1.00 27.96     0.033 A 
ATOM      2  C11 CBD B1001      -6.611   4.349   2.527  1.00 27.96     0.129 A 
ATOM      3  C12 CBD B1001      -5.225   2.541   3.311  1.00 27.96     0.129 A 
ATOM      4  C15 CBD B1001      -4.286   4.295   1.922  1.00 27.96    -0.018 A 
ATOM      5  C16 CBD B1001      -5.528   4.913   1.860  1.00 27.96     0.023 A 
ATOM      6  C17 CBD B1001      -4.134   3.109   2.643  1.00 27.96     0.023 A 
ATOM      7  O01 CBD B1001      -7.871   4.961   2.473  1.00 27.96    -0.190 OA
ATOM      8  O02 CBD B1001      -5.026   1.349   4.024  1.00 27.96    -0.190 OA
ENDROOT
BRANCH   1   9
ATOM      9  C04 CBD B1001      -7.777   2.689   3.936  1.00 27.96     0.051 C 
ATOM     10  C07 CBD B1001      -7.539   2.990   5.399  1.00 27.96    -0.030 C 
ATOM     11  C09 CBD B1001      -8.620   3.022   6.140  1.00 27.96    -0.048 C 
ATOM     12  C06 CBD B1001      -9.675   1.925   5.990  1.00 27.96     0.022 C 
ATOM     13  C13 CBD B1001      -9.098   4.403   6.578  1.00 27.96     0.026 C 
ATOM     14  C05 CBD B1001      -9.596   1.142   4.662  1.00 27.96     0.009 C 
ATOM     15  C03 CBD B1001      -8.255   1.232   3.910  1.00 27.96     0.027 C 
BRANCH  15  16
ATOM     16  C10 CBD B1001      -8.533   0.684   2.505  1.00 27.96    -0.044 C 
ATOM     17  C19 CBD B1001      -9.686   0.947   1.888  1.00 27.96    -0.009 C 
ATOM     18  C14 CBD B1001      -7.478  -0.211   1.825  1.00 27.96     0.026 C 
ENDBRANCH  15  16
ENDBRANCH   1   9
BRANCH   4  19
ATOM     19  C18 CBD B1001      -3.092   4.940   1.174  1.00 27.96     0.026 C 
BRANCH  19  20
ATOM     20  C20 CBD B1001      -3.425   5.008  -0.340  1.00 27.96     0.005 C 
BRANCH  20  21
ATOM     21  C21 CBD B1001      -3.449   3.576  -0.948  1.00 27.96     0.000 C 
BRANCH  21  22
ATOM     22  C22 CBD B1001      -4.838   3.311  -1.576  1.00 27.96     0.000 C 
ATOM     23  C23 CBD B1001      -5.555   2.198  -0.774  1.00 27.96     0.000 C 
ENDBRANCH  21  22
ENDBRANCH  20  21
ENDBRANCH  19  20
ENDBRANCH   4  19
TORSDOF 6
ENDMDL
MODEL 8
REMARK VINA RESULT:    -0.000      4.143      6.045
REMARK INTER + INTRA:          -1.663
REMARK INTER:                   0.000
REMARK INTRA:                  -1.663
REMARK UNBOUND:                -1.662
REMARK  6 active torsions:
REMARK  status: ('A' for Active; 'I' for Inactive)
REMARK    1  A    between atoms: C03_1  and  C10_8 
REMARK    2  A    between atoms: C04_2  and  C08_6 
REMARK    3  A    between atoms: C15_13  and  C18_16 
REMARK    4  A    between atoms: C18_16  and  C20_18 
REMARK    5  A    between atoms: C20_18  and  C21_19 
REMARK    6  A    between atoms: C21_19  and  C22_20 
ROOT
ATOM      1  C08 CBD B1001      -3.152   2.791   2.297  1.00 27.96     0.033 A 
ATOM      2  C11 CBD B1001      -3.727   1.541   2.496  1.00 27.96     0.129 A 
ATOM      3  C12 CBD B1001      -3.432   3.495   1.117  1.00 27.96     0.129 A 
ATOM      4  C15 CBD B1001      -4.796   1.641   0.346  1.00 27.96    -0.018 A 
ATOM      5  C16 CBD B1001      -4.532   0.955   1.524  1.00 27.96     0.023 A 
ATOM      6  C17 CBD B1001      -4.245   2.907   0.140  1.00 27.96     0.023 A 
ATOM      7  O01 CBD B1001      -3.450   0.860   3.690  1.00 27.96    -0.190 OA
ATOM      8  O02 CBD B1001      -2.900   4.769   0.868  1.00 27.96    -0.190 OA
ENDROOT
BRANCH   1   9
ATOM      9  C04 CBD B1001      -2.311   3.304   3.490  1.00 27.96     0.051 C 
ATOM     10  C07 CBD B1001      -3.177   4.365   4.133  1.00 27.96    -0.030 C 
ATOM     11  C09 CBD B1001      -2.845   4.682   5.360  1.00 27.96    -0.048 C 
ATOM     12  C06 CBD B1001      -1.374   4.915   5.711  1.00 27.96     0.022 C 
ATOM     13  C13 CBD B1001      -3.757   4.158   6.464  1.00 27.96     0.026 C 
ATOM     14  C05 CBD B1001      -0.374   4.304   4.706  1.00 27.96     0.009 C 
ATOM     15  C03 CBD B1001      -0.942   3.972   3.314  1.00 27.96     0.027 C 
BRANCH  15  16
ATOM     16  C10 CBD B1001       0.111   3.084   2.639  1.00 27.96    -0.044 C 
ATOM     17  C19 CBD B1001       0.782   2.171   3.344  1.00 27.96    -0.009 C 
ATOM     18  C14 CBD B1001       0.417   3.284   1.142  1.00 27.96     0.026 C 
ENDBRANCH  15  16
ENDBRANCH   1   9
BRANCH   4  19
ATOM     19  C18 CBD B1001      -5.696   0.972  -0.723  1.00 27.96     0.026 C 
BRANCH  19  20
ATOM     20  C20 CBD B1001      -5.034  -0.356  -1.178  1.00 27.96     0.005 C 
BRANCH  20  21
ATOM     21  C21 CBD B1001      -3.741  -0.059  -1.989  1.00 27.96     0.000 C 
BRANCH  21  22
ATOM     22  C22 CBD B1001      -2.538  -0.746  -1.301  1.00 27.96     0.000 C 
ATOM     23  C23 CBD B1001      -1.576   0.337  -0.755  1.00 27.96     0.000 C 
ENDBRANCH  21  22
ENDBRANCH  20  21
ENDBRANCH  19  20
ENDBRANCH   4  19
TORSDOF 6
ENDMDL
MODEL 9
REMARK VINA RESULT:     0.000      4.801      7.109
REMARK INTER + INTRA:          -1.662
REMARK INTER:                   0.000
REMARK INTRA:                  -1.662
REMARK UNBOUND:                -1.662
REMARK  6 active torsions:
REMARK  status: ('A' for Active; 'I' for Inactive)
REMARK    1  A    between atoms: C03_1  and  C10_8 
REMARK    2  A    between atoms: C04_2  and  C08_6 
REMARK    3  A    between atoms: C15_13  and  C18_16 
REMARK    4  A    between atoms: C18_16  and  C20_18 
REMARK    5  A    between atoms: C20_18  and  C21_19 
REMARK    6  A    between atoms: C21_19  and  C22_20 
ROOT
ATOM      1  C08 CBD B1001      -2.099   3.612   3.484  1.00 27.96     0.033 A 
ATOM      2  C11 CBD B1001      -1.235   4.432   4.201  1.00 27.96     0.129 A 
ATOM      3  C12 CBD B1001      -3.048   4.195   2.632  1.00 27.96     0.129 A 
ATOM      4  C15 CBD B1001      -2.281   6.399   3.299  1.00 27.96    -0.018 A 
ATOM      5  C16 CBD B1001      -1.329   5.818   4.127  1.00 27.96     0.023 A 
ATOM      6  C17 CBD B1001      -3.142   5.590   2.554  1.00 27.96     0.023 A 
ATOM      7  O01 CBD B1001      -0.280   3.831   5.034  1.00 27.96    -0.190 OA
ATOM      8  O02 CBD B1001      -3.933   3.421   1.866  1.00 27.96    -0.190 OA
ENDROOT
BRANCH   1   9
ATOM      9  C04 CBD B1001      -1.835   2.098   3.661  1.00 27.96     0.051 C 
ATOM     10  C07 CBD B1001      -1.174   1.678   2.366  1.00 27.96    -0.030 C 
ATOM     11  C09 CBD B1001      -0.532   0.537   2.418  1.00 27.96    -0.048 C 
ATOM     12  C06 CBD B1001      -1.184  -0.671   3.096  1.00 27.96     0.022 C 
ATOM     13  C13 CBD B1001       0.991   0.619   2.440  1.00 27.96     0.026 C 
ATOM     14  C05 CBD B1001      -2.334  -0.314   4.062  1.00 27.96     0.009 C 
ATOM     15  C03 CBD B1001      -2.962   1.079   3.872  1.00 27.96     0.027 C 
BRANCH  15  16
ATOM     16  C10 CBD B1001      -3.807   1.325   5.127  1.00 27.96    -0.044 C 
ATOM     17  C19 CBD B1001      -3.379   0.920   6.325  1.00 27.96    -0.009 C 
ATOM     18  C14 CBD B1001      -5.180   2.011   4.987  1.00 27.96     0.026 C 
ENDBRANCH  15  16
ENDBRANCH   1   9
BRANCH   4  19
ATOM     19  C18 CBD B1001      -2.368   7.944   3.229  1.00 27.96     0.026 C 
BRANCH  19  20
ATOM     20  C20 CBD B1001      -2.688   8.494   4.644  1.00 27.96     0.005 C 
BRANCH  20  21
ATOM     21  C21 CBD B1001      -4.139   8.109   5.053  1.00 27.96     0.000 C 
BRANCH  21  22
ATOM     22  C22 CBD B1001      -4.099   7.291   6.366  1.00 27.96     0.000 C 
ATOM     23  C23 CBD B1001      -4.570   5.844   6.079  1.00 27.96     0.000 C 
ENDBRANCH  21  22
ENDBRANCH  20  21
ENDBRANCH  19  20
ENDBRANCH   4  19
TORSDOF 6
ENDMDL
