MODEL 1
REMARK VINA RESULT:    -0.000      0.000      0.000
REMARK INTER + INTRA:          -1.663
REMARK INTER:                   0.000
REMARK INTRA:                  -1.663
REMARK UNBOUND:                -1.663
REMARK  6 active torsions:
REMARK  status: ('A' for Active; 'I' for Inactive)
REMARK    1  A    between atoms: C03_1  and  C10_8 
REMARK    2  A    between atoms: C04_2  and  C08_6 
REMARK    3  A    between atoms: C15_13  and  C18_16 
REMARK    4  A    between atoms: C18_16  and  C20_18 
REMARK    5  A    between atoms: C20_18  and  C21_19 
REMARK    6  A    between atoms: C21_19  and  C22_20 
ROOT
ATOM      1  C08 CBD B1001       4.695   3.062  -5.011  1.00 27.96     0.033 A 
ATOM      2  C11 CBD B1001       4.111   4.008  -4.177  1.00 27.96     0.129 A 
ATOM      3  C12 CBD B1001       6.026   3.236  -5.418  1.00 27.96     0.129 A 
ATOM      4  C15 CBD B1001       6.116   5.332  -4.198  1.00 27.96    -0.018 A 
ATOM      5  C16 CBD B1001       4.804   5.147  -3.781  1.00 27.96     0.023 A 
ATOM      6  C17 CBD B1001       6.726   4.380  -5.018  1.00 27.96     0.023 A 
ATOM      7  O01 CBD B1001       2.785   3.808  -3.765  1.00 27.96    -0.190 OA
ATOM      8  O02 CBD B1001       6.678   2.306  -6.242  1.00 27.96    -0.190 OA
ENDROOT
BRANCH   1   9
ATOM      9  C04 CBD B1001       3.793   1.845  -5.328  1.00 27.96     0.051 C 
ATOM     10  C07 CBD B1001       4.370   0.722  -4.493  1.00 27.96    -0.030 C 
ATOM     11  C09 CBD B1001       3.568  -0.298  -4.310  1.00 27.96    -0.048 C 
ATOM     12  C06 CBD B1001       2.782  -0.868  -5.493  1.00 27.96     0.022 C 
ATOM     13  C13 CBD B1001       2.945  -0.427  -2.923  1.00 27.96     0.026 C 
ATOM     14  C05 CBD B1001       2.647   0.097  -6.690  1.00 27.96     0.009 C 
ATOM     15  C03 CBD B1001       3.660   1.255  -6.737  1.00 27.96     0.027 C 
BRANCH  15  16
ATOM     16  C10 CBD B1001       3.119   2.236  -7.783  1.00 27.96    -0.044 C 
ATOM     17  C19 CBD B1001       1.808   2.465  -7.886  1.00 27.96    -0.009 C 
ATOM     18  C14 CBD B1001       4.103   2.929  -8.746  1.00 27.96     0.026 C 
ENDBRANCH  15  16
ENDBRANCH   1   9
BRANCH   4  19
ATOM     19  C18 CBD B1001       6.871   6.606  -3.745  1.00 27.96     0.026 C 
BRANCH  19  20
ATOM     20  C20 CBD B1001       6.111   7.854  -4.267  1.00 27.96     0.005 C 
BRANCH  20  21
ATOM     21  C21 CBD B1001       6.230   7.944  -5.816  1.00 27.96     0.000 C 
BRANCH  21  22
ATOM     22  C22 CBD B1001       4.813   7.939  -6.437  1.00 27.96     0.000 C 
ATOM     23  C23 CBD B1001       4.619   6.638  -7.253  1.00 27.96     0.000 C 
ENDBRANCH  21  22
ENDBRANCH  20  21
ENDBRANCH  19  20
ENDBRANCH   4  19
TORSDOF 6
ENDMDL
MODEL 2
REMARK VINA RESULT:    -0.000      7.989     11.215
REMARK INTER + INTRA:          -1.663
REMARK INTER:                   0.000
REMARK INTRA:                  -1.663
REMARK UNBOUND:                -1.663
REMARK  6 active torsions:
REMARK  status: ('A' for Active; 'I' for Inactive)
REMARK    1  A    between atoms: C03_1  and  C10_8 
REMARK    2  A    between atoms: C04_2  and  C08_6 
REMARK    3  A    between atoms: C15_13  and  C18_16 
REMARK    4  A    between atoms: C18_16  and  C20_18 
REMARK    5  A    between atoms: C20_18  and  C21_19 
REMARK    6  A    between atoms: C21_19  and  C22_20 
ROOT
ATOM      1  C08 CBD B1001      -3.711  -1.977  -2.146  1.00 27.96     0.033 A 
ATOM      2  C11 CBD B1001      -2.805  -3.028  -2.227  1.00 27.96     0.129 A 
ATOM      3  C12 CBD B1001      -4.713  -1.859  -3.121  1.00 27.96     0.129 A 
ATOM      4  C15 CBD B1001      -3.821  -3.807  -4.261  1.00 27.96    -0.018 A 
ATOM      5  C16 CBD B1001      -2.842  -3.932  -3.283  1.00 27.96     0.023 A 
ATOM      6  C17 CBD B1001      -4.753  -2.770  -4.183  1.00 27.96     0.023 A 
ATOM      7  O01 CBD B1001      -1.822  -3.140  -1.233  1.00 27.96    -0.190 OA
ATOM      8  O02 CBD B1001      -5.670  -0.833  -3.082  1.00 27.96    -0.190 OA
ENDROOT
BRANCH   1   9
ATOM      9  C04 CBD B1001      -3.545  -1.085  -0.893  1.00 27.96     0.051 C 
ATOM     10  C07 CBD B1001      -4.698  -1.479   0.005  1.00 27.96    -0.030 C 
ATOM     11  C09 CBD B1001      -4.563  -1.133   1.262  1.00 27.96    -0.048 C 
ATOM     12  C06 CBD B1001      -4.076   0.275   1.613  1.00 27.96     0.022 C 
ATOM     13  C13 CBD B1001      -4.235  -2.256   2.241  1.00 27.96     0.026 C 
ATOM     14  C05 CBD B1001      -3.346   1.001   0.463  1.00 27.96     0.009 C 
ATOM     15  C03 CBD B1001      -3.602   0.446  -0.950  1.00 27.96     0.027 C 
BRANCH  15  16
ATOM     16  C10 CBD B1001      -2.532   1.084  -1.844  1.00 27.96    -0.044 C 
ATOM     17  C19 CBD B1001      -1.290   1.267  -1.392  1.00 27.96    -0.009 C 
ATOM     18  C14 CBD B1001      -2.916   1.549  -3.262  1.00 27.96     0.026 C 
ENDBRANCH  15  16
ENDBRANCH   1   9
BRANCH   4  19
ATOM     19  C18 CBD B1001      -3.846  -4.825  -5.428  1.00 27.96     0.026 C 
BRANCH  19  20
ATOM     20  C20 CBD B1001      -2.503  -4.738  -6.200  1.00 27.96     0.005 C 
BRANCH  20  21
ATOM     21  C21 CBD B1001      -2.408  -3.383  -6.959  1.00 27.96     0.000 C 
BRANCH  21  22
ATOM     22  C22 CBD B1001      -1.147  -2.621  -6.487  1.00 27.96     0.000 C 
ATOM     23  C23 CBD B1001      -1.578  -1.340  -5.733  1.00 27.96     0.000 C 
ENDBRANCH  21  22
ENDBRANCH  20  21
ENDBRANCH  19  20
ENDBRANCH   4  19
TORSDOF 6
ENDMDL
MODEL 3
REMARK VINA RESULT:    -0.000      5.414      8.000
REMARK INTER + INTRA:          -1.663
REMARK INTER:                   0.000
REMARK INTRA:                  -1.663
REMARK UNBOUND:                -1.663
REMARK  6 active torsions:
REMARK  status: ('A' for Active; 'I' for Inactive)
REMARK    1  A    between atoms: C03_1  and  C10_8 
REMARK    2  A    between atoms: C04_2  and  C08_6 
REMARK    3  A    between atoms: C15_13  and  C18_16 
REMARK    4  A    between atoms: C18_16  and  C20_18 
REMARK    5  A    between atoms: C20_18  and  C21_19 
REMARK    6  A    between atoms: C21_19  and  C22_20 
ROOT
ATOM      1  C08 CBD B1001       2.782  -1.498  -1.058  1.00 27.96     0.033 A 
ATOM      2  C11 CBD B1001       3.050  -0.338  -1.775  1.00 27.96     0.129 A 
ATOM      3  C12 CBD B1001       3.495  -2.668  -1.356  1.00 27.96     0.129 A 
ATOM      4  C15 CBD B1001       4.669  -1.492  -3.124  1.00 27.96    -0.018 A 
ATOM      5  C16 CBD B1001       3.975  -0.330  -2.814  1.00 27.96     0.023 A 
ATOM      6  C17 CBD B1001       4.428  -2.661  -2.400  1.00 27.96     0.023 A 
ATOM      7  O01 CBD B1001       2.341   0.827  -1.451  1.00 27.96    -0.190 OA
ATOM      8  O02 CBD B1001       3.285  -3.865  -0.654  1.00 27.96    -0.190 OA
ENDROOT
BRANCH   1   9
ATOM      9  C04 CBD B1001       1.749  -1.321   0.080  1.00 27.96     0.051 C 
ATOM     10  C07 CBD B1001       2.578  -1.336   1.346  1.00 27.96    -0.030 C 
ATOM     11  C09 CBD B1001       1.983  -0.841   2.403  1.00 27.96    -0.048 C 
ATOM     12  C06 CBD B1001       0.537  -1.234   2.713  1.00 27.96     0.022 C 
ATOM     13  C13 CBD B1001       2.450   0.538   2.859  1.00 27.96     0.026 C 
ATOM     14  C05 CBD B1001      -0.239  -1.807   1.508  1.00 27.96     0.009 C 
ATOM     15  C03 CBD B1001       0.621  -2.327   0.342  1.00 27.96     0.027 C 
BRANCH  15  16
ATOM     16  C10 CBD B1001      -0.345  -2.510  -0.835  1.00 27.96    -0.044 C 
ATOM     17  C19 CBD B1001      -1.334  -1.638  -1.045  1.00 27.96    -0.009 C 
ATOM     18  C14 CBD B1001      -0.188  -3.737  -1.754  1.00 27.96     0.026 C 
ENDBRANCH  15  16
ENDBRANCH   1   9
BRANCH   4  19
ATOM     19  C18 CBD B1001       5.696  -1.462  -4.284  1.00 27.96     0.026 C 
BRANCH  19  20
ATOM     20  C20 CBD B1001       4.962  -1.079  -5.596  1.00 27.96     0.005 C 
BRANCH  20  21
ATOM     21  C21 CBD B1001       4.014  -2.233  -6.036  1.00 27.96     0.000 C 
BRANCH  21  22
ATOM     22  C22 CBD B1001       2.567  -1.695  -6.132  1.00 27.96     0.000 C 
ATOM     23  C23 CBD B1001       1.698  -2.372  -5.044  1.00 27.96     0.000 C 
ENDBRANCH  21  22
ENDBRANCH  20  21
ENDBRANCH  19  20
ENDBRANCH   4  19
TORSDOF 6
ENDMDL
MODEL 4
REMARK VINA RESULT:    -0.000      4.044      6.630
REMARK INTER + INTRA:          -1.663
REMARK INTER:                   0.000
REMARK INTRA:                  -1.663
REMARK UNBOUND:                -1.663
REMARK  6 active torsions:
REMARK  status: ('A' for Active; 'I' for Inactive)
REMARK    1  A    between atoms: C03_1  and  C10_8 
REMARK    2  A    between atoms: C04_2  and  C08_6 
REMARK    3  A    between atoms: C15_13  and  C18_16 
REMARK    4  A    between atoms: C18_16  and  C20_18 
REMARK    5  A    between atoms: C20_18  and  C21_19 
REMARK    6  A    between atoms: C21_19  and  C22_20 
ROOT
ATOM      1  C08 CBD B1001       1.091   1.240  -2.883  1.00 27.96     0.033 A 
ATOM      2  C11 CBD B1001       2.232   1.829  -3.413  1.00 27.96     0.129 A 
ATOM      3  C12 CBD B1001       0.468   0.198  -3.585  1.00 27.96     0.129 A 
ATOM      4  C15 CBD B1001       2.111   0.423  -5.358  1.00 27.96    -0.018 A 
ATOM      5  C16 CBD B1001       2.737   1.441  -4.650  1.00 27.96     0.023 A 
ATOM      6  C17 CBD B1001       0.976  -0.196  -4.829  1.00 27.96     0.023 A 
ATOM      7  O01 CBD B1001       2.852   2.857  -2.688  1.00 27.96    -0.190 OA
ATOM      8  O02 CBD B1001      -0.674  -0.452  -3.092  1.00 27.96    -0.190 OA
ENDROOT
BRANCH   1   9
ATOM      9  C04 CBD B1001       0.687   1.772  -1.487  1.00 27.96     0.051 C 
ATOM     10  C07 CBD B1001       1.086   0.666  -0.533  1.00 27.96    -0.030 C 
ATOM     11  C09 CBD B1001       1.182   1.028   0.722  1.00 27.96    -0.048 C 
ATOM     12  C06 CBD B1001       0.088   1.897   1.347  1.00 27.96     0.022 C 
ATOM     13  C13 CBD B1001       2.595   1.166   1.280  1.00 27.96     0.026 C 
ATOM     14  C05 CBD B1001      -0.785   2.654   0.324  1.00 27.96     0.009 C 
ATOM     15  C03 CBD B1001      -0.763   2.104  -1.114  1.00 27.96     0.027 C 
BRANCH  15  16
ATOM     16  C10 CBD B1001      -1.404   3.193  -1.982  1.00 27.96    -0.044 C 
ATOM     17  C19 CBD B1001      -1.171   4.484  -1.735  1.00 27.96    -0.009 C 
ATOM     18  C14 CBD B1001      -2.355   2.783  -3.123  1.00 27.96     0.026 C 
ENDBRANCH  15  16
ENDBRANCH   1   9
BRANCH   4  19
ATOM     19  C18 CBD B1001       2.689   0.003  -6.732  1.00 27.96     0.026 C 
BRANCH  19  20
ATOM     20  C20 CBD B1001       2.655   1.227  -7.687  1.00 27.96     0.005 C 
BRANCH  20  21
ATOM     21  C21 CBD B1001       1.184   1.580  -8.051  1.00 27.96     0.000 C 
BRANCH  21  22
ATOM     22  C22 CBD B1001       0.891   3.040  -7.632  1.00 27.96     0.000 C 
ATOM     23  C23 CBD B1001      -0.155   3.042  -6.491  1.00 27.96     0.000 C 
ENDBRANCH  21  22
ENDBRANCH  20  21
ENDBRANCH  19  20
ENDBRANCH   4  19
TORSDOF 6
ENDMDL
MODEL 5
REMARK VINA RESULT:     0.000      3.750      6.282
REMARK INTER + INTRA:          -1.663
REMARK INTER:                   0.000
REMARK INTRA:                  -1.663
REMARK UNBOUND:                -1.663
REMARK  6 active torsions:
REMARK  status: ('A' for Active; 'I' for Inactive)
REMARK    1  A    between atoms: C03_1  and  C10_8 
REMARK    2  A    between atoms: C04_2  and  C08_6 
REMARK    3  A    between atoms: C15_13  and  C18_16 
REMARK    4  A    between atoms: C18_16  and  C20_18 
REMARK    5  A    between atoms: C20_18  and  C21_19 
REMARK    6  A    between atoms: C21_19  and  C22_20 
ROOT
ATOM      1  C08 CBD B1001       3.268   2.203  -1.923  1.00 27.96     0.033 A 
ATOM      2  C11 CBD B1001       2.341   2.438  -2.931  1.00 27.96     0.129 A 
ATOM      3  C12 CBD B1001       2.819   2.032  -0.606  1.00 27.96     0.129 A 
ATOM      4  C15 CBD B1001       0.538   2.410  -1.343  1.00 27.96    -0.018 A 
ATOM      5  C16 CBD B1001       0.984   2.559  -2.650  1.00 27.96     0.023 A 
ATOM      6  C17 CBD B1001       1.454   2.150  -0.321  1.00 27.96     0.023 A 
ATOM      7  O01 CBD B1001       2.806   2.588  -4.246  1.00 27.96    -0.190 OA
ATOM      8  O02 CBD B1001       3.703   1.770   0.452  1.00 27.96    -0.190 OA
ENDROOT
BRANCH   1   9
ATOM      9  C04 CBD B1001       4.728   2.068  -2.417  1.00 27.96     0.051 C 
ATOM     10  C07 CBD B1001       5.018   0.585  -2.334  1.00 27.96    -0.030 C 
ATOM     11  C09 CBD B1001       6.049   0.184  -3.036  1.00 27.96    -0.048 C 
ATOM     12  C06 CBD B1001       7.354   0.981  -2.992  1.00 27.96     0.022 C 
ATOM     13  C13 CBD B1001       5.738  -0.585  -4.316  1.00 27.96     0.026 C 
ATOM     14  C05 CBD B1001       7.195   2.435  -2.497  1.00 27.96     0.009 C 
ATOM     15  C03 CBD B1001       5.910   2.737  -1.705  1.00 27.96     0.027 C 
BRANCH  15  16
ATOM     16  C10 CBD B1001       5.819   4.266  -1.632  1.00 27.96    -0.044 C 
ATOM     17  C19 CBD B1001       6.177   5.018  -2.675  1.00 27.96    -0.009 C 
ATOM     18  C14 CBD B1001       5.346   4.930  -0.325  1.00 27.96     0.026 C 
ENDBRANCH  15  16
ENDBRANCH   1   9
BRANCH   4  19
ATOM     19  C18 CBD B1001      -0.977   2.546  -1.050  1.00 27.96     0.026 C 
BRANCH  19  20
ATOM     20  C20 CBD B1001      -1.444   3.966  -1.467  1.00 27.96     0.005 C 
BRANCH  20  21
ATOM     21  C21 CBD B1001      -0.836   5.031  -0.511  1.00 27.96     0.000 C 
BRANCH  21  22
ATOM     22  C22 CBD B1001      -0.008   6.044  -1.337  1.00 27.96     0.000 C 
ATOM     23  C23 CBD B1001       1.488   5.908  -0.960  1.00 27.96     0.000 C 
ENDBRANCH  21  22
ENDBRANCH  20  21
ENDBRANCH  19  20
ENDBRANCH   4  19
TORSDOF 6
ENDMDL
MODEL 6
REMARK VINA RESULT:     0.000     10.726     13.242
REMARK INTER + INTRA:          -1.663
REMARK INTER:                   0.000
REMARK INTRA:                  -1.663
REMARK UNBOUND:                -1.663
REMARK  6 active torsions:
REMARK  status: ('A' for Active; 'I' for Inactive)
REMARK    1  A    between atoms: C03_1  and  C10_8 
REMARK    2  A    between atoms: C04_2  and  C08_6 
REMARK    3  A    between atoms: C15_13  and  C18_16 
REMARK    4  A    between atoms: C18_16  and  C20_18 
REMARK    5  A    between atoms: C20_18  and  C21_19 
REMARK    6  A    between atoms: C21_19  and  C22_20 
ROOT
ATOM      1  C08 CBD B1001      -1.126   4.056   4.562  1.00 27.96     0.033 A 
ATOM      2  C11 CBD B1001      -1.120   2.670   4.453  1.00 27.96     0.129 A 
ATOM      3  C12 CBD B1001       0.027   4.713   5.016  1.00 27.96     0.129 A 
ATOM      4  C15 CBD B1001       1.125   2.568   5.302  1.00 27.96    -0.018 A 
ATOM      5  C16 CBD B1001      -0.012   1.922   4.834  1.00 27.96     0.023 A 
ATOM      6  C17 CBD B1001       1.145   3.961   5.397  1.00 27.96     0.023 A 
ATOM      7  O01 CBD B1001      -2.276   2.032   3.980  1.00 27.96    -0.190 OA
ATOM      8  O02 CBD B1001       0.091   6.110   5.127  1.00 27.96    -0.190 OA
ENDROOT
BRANCH   1   9
ATOM      9  C04 CBD B1001      -2.428   4.730   4.067  1.00 27.96     0.051 C 
ATOM     10  C07 CBD B1001      -2.052   5.343   2.736  1.00 27.96    -0.030 C 
ATOM     11  C09 CBD B1001      -3.064   5.648   1.962  1.00 27.96    -0.048 C 
ATOM     12  C06 CBD B1001      -4.280   6.366   2.551  1.00 27.96     0.022 C 
ATOM     13  C13 CBD B1001      -3.300   4.732   0.765  1.00 27.96     0.026 C 
ATOM     14  C05 CBD B1001      -4.406   6.251   4.085  1.00 27.96     0.009 C 
ATOM     15  C03 CBD B1001      -3.120   5.862   4.836  1.00 27.96     0.027 C 
BRANCH  15  16
ATOM     16  C10 CBD B1001      -3.568   5.481   6.252  1.00 27.96    -0.044 C 
ATOM     17  C19 CBD B1001      -4.707   4.814   6.448  1.00 27.96    -0.009 C 
ATOM     18  C14 CBD B1001      -2.707   5.911   7.455  1.00 27.96     0.026 C 
ENDBRANCH  15  16
ENDBRANCH   1   9
BRANCH   4  19
ATOM     19  C18 CBD B1001       2.350   1.716   5.719  1.00 27.96     0.026 C 
BRANCH  19  20
ATOM     20  C20 CBD B1001       1.932   0.765   6.873  1.00 27.96     0.005 C 
BRANCH  20  21
ATOM     21  C21 CBD B1001       1.655   1.583   8.166  1.00 27.96     0.000 C 
BRANCH  21  22
ATOM     22  C22 CBD B1001       0.204   1.321   8.634  1.00 27.96     0.000 C 
ATOM     23  C23 CBD B1001      -0.619   2.626   8.502  1.00 27.96     0.000 C 
ENDBRANCH  21  22
ENDBRANCH  20  21
ENDBRANCH  19  20
ENDBRANCH   4  19
TORSDOF 6
ENDMDL
MODEL 7
REMARK VINA RESULT:     0.000     10.519     14.079
REMARK INTER + INTRA:          -1.663
REMARK INTER:                   0.000
REMARK INTRA:                  -1.663
REMARK UNBOUND:                -1.663
REMARK  6 active torsions:
REMARK  status: ('A' for Active; 'I' for Inactive)
REMARK    1  A    between atoms: C03_1  and  C10_8 
REMARK    2  A    between atoms: C04_2  and  C08_6 
REMARK    3  A    between atoms: C15_13  and  C18_16 
REMARK    4  A    between atoms: C18_16  and  C20_18 
REMARK    5  A    between atoms: C20_18  and  C21_19 
REMARK    6  A    between atoms: C21_19  and  C22_20 
ROOT
ATOM      1  C08 CBD B1001      -2.394  -1.012   5.766  1.00 27.96     0.033 A 
ATOM      2  C11 CBD B1001      -3.604  -0.705   5.156  1.00 27.96     0.129 A 
ATOM      3  C12 CBD B1001      -1.264  -0.232   5.478  1.00 27.96     0.129 A 
ATOM      4  C15 CBD B1001      -2.582   1.088   3.926  1.00 27.96    -0.018 A 
ATOM      5  C16 CBD B1001      -3.704   0.326   4.228  1.00 27.96     0.023 A 
ATOM      6  C17 CBD B1001      -1.363   0.808   4.547  1.00 27.96     0.023 A 
ATOM      7  O01 CBD B1001      -4.727  -1.484   5.471  1.00 27.96    -0.190 OA
ATOM      8  O02 CBD B1001      -0.020  -0.478   6.078  1.00 27.96    -0.190 OA
ENDROOT
BRANCH   1   9
ATOM      9  C04 CBD B1001      -2.470  -2.168   6.792  1.00 27.96     0.051 C 
ATOM     10  C07 CBD B1001      -2.395  -1.481   8.139  1.00 27.96    -0.030 C 
ATOM     11  C09 CBD B1001      -2.804  -2.204   9.152  1.00 27.96    -0.048 C 
ATOM     12  C06 CBD B1001      -2.354  -3.661   9.275  1.00 27.96     0.022 C 
ATOM     13  C13 CBD B1001      -4.163  -1.835   9.740  1.00 27.96     0.026 C 
ATOM     14  C05 CBD B1001      -1.841  -4.283   7.958  1.00 27.96     0.009 C 
ATOM     15  C03 CBD B1001      -1.421  -3.284   6.864  1.00 27.96     0.027 C 
BRANCH  15  16
ATOM     16  C10 CBD B1001      -1.289  -4.109   5.579  1.00 27.96    -0.044 C 
ATOM     17  C19 CBD B1001      -2.146  -5.097   5.315  1.00 27.96    -0.009 C 
ATOM     18  C14 CBD B1001      -0.128  -3.813   4.610  1.00 27.96     0.026 C 
ENDBRANCH  15  16
ENDBRANCH   1   9
BRANCH   4  19
ATOM     19  C18 CBD B1001      -2.714   2.233   2.891  1.00 27.96     0.026 C 
BRANCH  19  20
ATOM     20  C20 CBD B1001      -3.163   1.634   1.532  1.00 27.96     0.005 C 
BRANCH  20  21
ATOM     21  C21 CBD B1001      -2.017   0.779   0.919  1.00 27.96     0.000 C 
BRANCH  21  22
ATOM     22  C22 CBD B1001      -2.522  -0.667   0.697  1.00 27.96     0.000 C 
ATOM     23  C23 CBD B1001      -1.754  -1.626   1.638  1.00 27.96     0.000 C 
ENDBRANCH  21  22
ENDBRANCH  20  21
ENDBRANCH  19  20
ENDBRANCH   4  19
TORSDOF 6
ENDMDL
MODEL 8
REMARK VINA RESULT:     0.000      7.822     10.616
REMARK INTER + INTRA:          -1.663
REMARK INTER:                   0.000
REMARK INTRA:                  -1.663
REMARK UNBOUND:                -1.663
REMARK  6 active torsions:
REMARK  status: ('A' for Active; 'I' for Inactive)
REMARK    1  A    between atoms: C03_1  and  C10_8 
REMARK    2  A    between atoms: C04_2  and  C08_6 
REMARK    3  A    between atoms: C15_13  and  C18_16 
REMARK    4  A    between atoms: C18_16  and  C20_18 
REMARK    5  A    between atoms: C20_18  and  C21_19 
REMARK    6  A    between atoms: C21_19  and  C22_20 
ROOT
ATOM      1  C08 CBD B1001      -3.263  -1.674  -1.757  1.00 27.96     0.033 A 
ATOM      2  C11 CBD B1001      -2.516  -2.345  -0.797  1.00 27.96     0.129 A 
ATOM      3  C12 CBD B1001      -2.637  -0.711  -2.562  1.00 27.96     0.129 A 
ATOM      4  C15 CBD B1001      -0.556  -1.077  -1.367  1.00 27.96    -0.018 A 
ATOM      5  C16 CBD B1001      -1.175  -2.044  -0.585  1.00 27.96     0.023 A 
ATOM      6  C17 CBD B1001      -1.286  -0.408  -2.353  1.00 27.96     0.023 A 
ATOM      7  O01 CBD B1001      -3.154  -3.318  -0.014  1.00 27.96    -0.190 OA
ATOM      8  O02 CBD B1001      -3.331  -0.014  -3.563  1.00 27.96    -0.190 OA
ENDROOT
BRANCH   1   9
ATOM      9  C04 CBD B1001      -4.728  -2.154  -1.879  1.00 27.96     0.051 C 
ATOM     10  C07 CBD B1001      -4.753  -2.965  -3.156  1.00 27.96    -0.030 C 
ATOM     11  C09 CBD B1001      -5.779  -3.771  -3.279  1.00 27.96    -0.048 C 
ATOM     12  C06 CBD B1001      -7.185  -3.266  -2.945  1.00 27.96     0.022 C 
ATOM     13  C13 CBD B1001      -5.500  -5.257  -3.080  1.00 27.96     0.026 C 
ATOM     14  C05 CBD B1001      -7.213  -2.007  -2.052  1.00 27.96     0.009 C 
ATOM     15  C03 CBD B1001      -5.911  -1.187  -2.007  1.00 27.96     0.027 C 
BRANCH  15  16
ATOM     16  C10 CBD B1001      -6.070  -0.224  -0.825  1.00 27.96    -0.044 C 
ATOM     17  C19 CBD B1001      -6.672  -0.621   0.298  1.00 27.96    -0.009 C 
ATOM     18  C14 CBD B1001      -5.561   1.224  -0.960  1.00 27.96     0.026 C 
ENDBRANCH  15  16
ENDBRANCH   1   9
BRANCH   4  19
ATOM     19  C18 CBD B1001       0.939  -0.757  -1.117  1.00 27.96     0.026 C 
BRANCH  19  20
ATOM     20  C20 CBD B1001       1.108  -0.254   0.341  1.00 27.96     0.005 C 
BRANCH  20  21
ATOM     21  C21 CBD B1001       0.449   1.146   0.504  1.00 27.96     0.000 C 
BRANCH  21  22
ATOM     22  C22 CBD B1001      -0.630   1.076   1.610  1.00 27.96     0.000 C 
ATOM     23  C23 CBD B1001      -2.025   1.297   0.975  1.00 27.96     0.000 C 
ENDBRANCH  21  22
ENDBRANCH  20  21
ENDBRANCH  19  20
ENDBRANCH   4  19
TORSDOF 6
ENDMDL
MODEL 9
REMARK VINA RESULT:     0.000      3.065      5.365
REMARK INTER + INTRA:          -1.663
REMARK INTER:                   0.000
REMARK INTRA:                  -1.663
REMARK UNBOUND:                -1.663
REMARK  6 active torsions:
REMARK  status: ('A' for Active; 'I' for Inactive)
REMARK    1  A    between atoms: C03_1  and  C10_8 
REMARK    2  A    between atoms: C04_2  and  C08_6 
REMARK    3  A    between atoms: C15_13  and  C18_16 
REMARK    4  A    between atoms: C18_16  and  C20_18 
REMARK    5  A    between atoms: C20_18  and  C21_19 
REMARK    6  A    between atoms: C21_19  and  C22_20 
ROOT
ATOM      1  C08 CBD B1001       4.012   1.862  -2.869  1.00 27.96     0.033 A 
ATOM      2  C11 CBD B1001       3.064   0.854  -3.005  1.00 27.96     0.129 A 
ATOM      3  C12 CBD B1001       3.604   3.133  -2.438  1.00 27.96     0.129 A 
ATOM      4  C15 CBD B1001       1.305   2.360  -2.364  1.00 27.96    -0.018 A 
ATOM      5  C16 CBD B1001       1.715   1.097  -2.772  1.00 27.96     0.023 A 
ATOM      6  C17 CBD B1001       2.247   3.378  -2.200  1.00 27.96     0.023 A 
ATOM      7  O01 CBD B1001       3.493  -0.415  -3.418  1.00 27.96    -0.190 OA
ATOM      8  O02 CBD B1001       4.516   4.185  -2.261  1.00 27.96    -0.190 OA
ENDROOT
BRANCH   1   9
ATOM      9  C04 CBD B1001       5.468   1.411  -3.138  1.00 27.96     0.051 C 
ATOM     10  C07 CBD B1001       6.097   1.329  -1.764  1.00 27.96    -0.030 C 
ATOM     11  C09 CBD B1001       7.200   0.625  -1.702  1.00 27.96    -0.048 C 
ATOM     12  C06 CBD B1001       8.280   0.811  -2.770  1.00 27.96     0.022 C 
ATOM     13  C13 CBD B1001       7.089  -0.748  -1.046  1.00 27.96     0.026 C 
ATOM     14  C05 CBD B1001       7.780   1.467  -4.074  1.00 27.96     0.009 C 
ATOM     15  C03 CBD B1001       6.453   2.241  -3.970  1.00 27.96     0.027 C 
BRANCH  15  16
ATOM     16  C10 CBD B1001       6.005   2.489  -5.415  1.00 27.96    -0.044 C 
ATOM     17  C19 CBD B1001       6.186   1.556  -6.353  1.00 27.96    -0.009 C 
ATOM     18  C14 CBD B1001       5.377   3.846  -5.786  1.00 27.96     0.026 C 
ENDBRANCH  15  16
ENDBRANCH   1   9
BRANCH   4  19
ATOM     19  C18 CBD B1001      -0.202   2.610  -2.107  1.00 27.96     0.026 C 
BRANCH  19  20
ATOM     20  C20 CBD B1001      -0.986   2.344  -3.420  1.00 27.96     0.005 C 
BRANCH  20  21
ATOM     21  C21 CBD B1001      -0.655   3.440  -4.473  1.00 27.96     0.000 C 
BRANCH  21  22
ATOM     22  C22 CBD B1001      -0.080   2.770  -5.743  1.00 27.96     0.000 C 
ATOM     23  C23 CBD B1001       1.402   3.185  -5.912  1.00 27.96     0.000 C 
ENDBRANCH  21  22
ENDBRANCH  20  21
ENDBRANCH  19  20
ENDBRANCH   4  19
TORSDOF 6
ENDMDL
