MODEL 1
REMARK VINA RESULT:    -0.000      0.000      0.000
REMARK INTER + INTRA:          -1.663
REMARK INTER:                   0.000
REMARK INTRA:                  -1.663
REMARK UNBOUND:                -1.663
REMARK  6 active torsions:
REMARK  status: ('A' for Active; 'I' for Inactive)
REMARK    1  A    between atoms: C03_1  and  C10_8 
REMARK    2  A    between atoms: C04_2  and  C08_6 
REMARK    3  A    between atoms: C15_13  and  C18_16 
REMARK    4  A    between atoms: C18_16  and  C20_18 
REMARK    5  A    between atoms: C20_18  and  C21_19 
REMARK    6  A    between atoms: C21_19  and  C22_20 
ROOT
ATOM      1  C08 CBD B1001      -3.323   3.404  -3.360  1.00 27.96     0.033 A 
ATOM      2  C11 CBD B1001      -4.410   3.629  -2.523  1.00 27.96     0.129 A 
ATOM      3  C12 CBD B1001      -3.543   3.208  -4.731  1.00 27.96     0.129 A 
ATOM      4  C15 CBD B1001      -5.934   3.400  -4.366  1.00 27.96    -0.018 A 
ATOM      5  C16 CBD B1001      -5.712   3.613  -3.012  1.00 27.96     0.023 A 
ATOM      6  C17 CBD B1001      -4.853   3.195  -5.225  1.00 27.96     0.023 A 
ATOM      7  O01 CBD B1001      -4.169   3.841  -1.158  1.00 27.96    -0.190 OA
ATOM      8  O02 CBD B1001      -2.486   2.998  -5.630  1.00 27.96    -0.190 OA
ENDROOT
BRANCH   1   9
ATOM      9  C04 CBD B1001      -1.947   3.486  -2.657  1.00 27.96     0.051 C 
ATOM     10  C07 CBD B1001      -1.373   4.813  -3.107  1.00 27.96    -0.030 C 
ATOM     11  C09 CBD B1001      -0.393   5.270  -2.368  1.00 27.96    -0.048 C 
ATOM     12  C06 CBD B1001       0.731   4.328  -1.930  1.00 27.96     0.022 C 
ATOM     13  C13 CBD B1001      -0.730   6.439  -1.447  1.00 27.96     0.026 C 
ATOM     14  C05 CBD B1001       0.370   2.829  -2.005  1.00 27.96     0.009 C 
ATOM     15  C03 CBD B1001      -0.825   2.471  -2.907  1.00 27.96     0.027 C 
BRANCH  15  16
ATOM     16  C10 CBD B1001      -1.192   1.026  -2.551  1.00 27.96    -0.044 C 
ATOM     17  C19 CBD B1001      -1.132   0.600  -1.288  1.00 27.96    -0.009 C 
ATOM     18  C14 CBD B1001      -1.595   0.053  -3.677  1.00 27.96     0.026 C 
ENDBRANCH  15  16
ENDBRANCH   1   9
BRANCH   4  19
ATOM     19  C18 CBD B1001      -7.392   3.387  -4.891  1.00 27.96     0.026 C 
BRANCH  19  20
ATOM     20  C20 CBD B1001      -8.172   2.250  -4.180  1.00 27.96     0.005 C 
BRANCH  20  21
ATOM     21  C21 CBD B1001      -7.648   0.864  -4.654  1.00 27.96     0.000 C 
BRANCH  21  22
ATOM     22  C22 CBD B1001      -7.150   0.061  -3.428  1.00 27.96     0.000 C 
ATOM     23  C23 CBD B1001      -5.618  -0.134  -3.535  1.00 27.96     0.000 C 
ENDBRANCH  21  22
ENDBRANCH  20  21
ENDBRANCH  19  20
ENDBRANCH   4  19
TORSDOF 6
ENDMDL
MODEL 2
REMARK VINA RESULT:     0.000      4.606      7.152
REMARK INTER + INTRA:          -1.663
REMARK INTER:                   0.000
REMARK INTRA:                  -1.663
REMARK UNBOUND:                -1.663
REMARK  6 active torsions:
REMARK  status: ('A' for Active; 'I' for Inactive)
REMARK    1  A    between atoms: C03_1  and  C10_8 
REMARK    2  A    between atoms: C04_2  and  C08_6 
REMARK    3  A    between atoms: C15_13  and  C18_16 
REMARK    4  A    between atoms: C18_16  and  C20_18 
REMARK    5  A    between atoms: C20_18  and  C21_19 
REMARK    6  A    between atoms: C21_19  and  C22_20 
ROOT
ATOM      1  C08 CBD B1001      -4.746  -2.302  -1.450  1.00 27.96     0.033 A 
ATOM      2  C11 CBD B1001      -3.774  -1.489  -2.022  1.00 27.96     0.129 A 
ATOM      3  C12 CBD B1001      -6.042  -2.303  -1.987  1.00 27.96     0.129 A 
ATOM      4  C15 CBD B1001      -5.364  -0.624  -3.604  1.00 27.96    -0.018 A 
ATOM      5  C16 CBD B1001      -4.077  -0.640  -3.082  1.00 27.96     0.023 A 
ATOM      6  C17 CBD B1001      -6.347  -1.451  -3.056  1.00 27.96     0.023 A 
ATOM      7  O01 CBD B1001      -2.480  -1.515  -1.484  1.00 27.96    -0.190 OA
ATOM      8  O02 CBD B1001      -7.060  -3.117  -1.468  1.00 27.96    -0.190 OA
ENDROOT
BRANCH   1   9
ATOM      9  C04 CBD B1001      -4.231  -3.202  -0.302  1.00 27.96     0.051 C 
ATOM     10  C07 CBD B1001      -4.156  -4.584  -0.912  1.00 27.96    -0.030 C 
ATOM     11  C09 CBD B1001      -3.410  -5.438  -0.257  1.00 27.96    -0.048 C 
ATOM     12  C06 CBD B1001      -3.528  -5.538   1.266  1.00 27.96     0.022 C 
ATOM     13  C13 CBD B1001      -2.058  -5.773  -0.880  1.00 27.96     0.026 C 
ATOM     14  C05 CBD B1001      -4.173  -4.305   1.935  1.00 27.96     0.009 C 
ATOM     15  C03 CBD B1001      -5.001  -3.396   1.010  1.00 27.96     0.027 C 
BRANCH  15  16
ATOM     16  C10 CBD B1001      -5.234  -2.103   1.801  1.00 27.96    -0.044 C 
ATOM     17  C19 CBD B1001      -4.274  -1.601   2.580  1.00 27.96    -0.009 C 
ATOM     18  C14 CBD B1001      -6.607  -1.408   1.720  1.00 27.96     0.026 C 
ENDBRANCH  15  16
ENDBRANCH   1   9
BRANCH   4  19
ATOM     19  C18 CBD B1001      -5.680   0.326  -4.785  1.00 27.96     0.026 C 
BRANCH  19  20
ATOM     20  C20 CBD B1001      -5.417   1.789  -4.338  1.00 27.96     0.005 C 
BRANCH  20  21
ATOM     21  C21 CBD B1001      -6.474   2.224  -3.284  1.00 27.96     0.000 C 
BRANCH  21  22
ATOM     22  C22 CBD B1001      -5.752   2.652  -1.984  1.00 27.96     0.000 C 
ATOM     23  C23 CBD B1001      -6.101   1.651  -0.855  1.00 27.96     0.000 C 
ENDBRANCH  21  22
ENDBRANCH  20  21
ENDBRANCH  19  20
ENDBRANCH   4  19
TORSDOF 6
ENDMDL
MODEL 3
REMARK VINA RESULT:     0.000      5.276      8.228
REMARK INTER + INTRA:          -1.663
REMARK INTER:                   0.000
REMARK INTRA:                  -1.663
REMARK UNBOUND:                -1.663
REMARK  6 active torsions:
REMARK  status: ('A' for Active; 'I' for Inactive)
REMARK    1  A    between atoms: C03_1  and  C10_8 
REMARK    2  A    between atoms: C04_2  and  C08_6 
REMARK    3  A    between atoms: C15_13  and  C18_16 
REMARK    4  A    between atoms: C18_16  and  C20_18 
REMARK    5  A    between atoms: C20_18  and  C21_19 
REMARK    6  A    between atoms: C21_19  and  C22_20 
ROOT
ATOM      1  C08 CBD B1001      -2.748  -1.847   0.481  1.00 27.96     0.033 A 
ATOM      2  C11 CBD B1001      -1.852  -1.133  -0.306  1.00 27.96     0.129 A 
ATOM      3  C12 CBD B1001      -2.300  -2.981   1.172  1.00 27.96     0.129 A 
ATOM      4  C15 CBD B1001      -0.092  -2.686   0.209  1.00 27.96    -0.018 A 
ATOM      5  C16 CBD B1001      -0.535  -1.551  -0.459  1.00 27.96     0.023 A 
ATOM      6  C17 CBD B1001      -0.973  -3.402   1.021  1.00 27.96     0.023 A 
ATOM      7  O01 CBD B1001      -2.314   0.010  -0.975  1.00 27.96    -0.190 OA
ATOM      8  O02 CBD B1001      -3.150  -3.732   1.999  1.00 27.96    -0.190 OA
ENDROOT
BRANCH   1   9
ATOM      9  C04 CBD B1001      -4.163  -1.225   0.563  1.00 27.96     0.051 C 
ATOM     10  C07 CBD B1001      -4.223  -0.610   1.945  1.00 27.96    -0.030 C 
ATOM     11  C09 CBD B1001      -5.169   0.280   2.114  1.00 27.96    -0.048 C 
ATOM     12  C06 CBD B1001      -6.581  -0.007   1.600  1.00 27.96     0.022 C 
ATOM     13  C13 CBD B1001      -4.723   1.738   2.168  1.00 27.96     0.026 C 
ATOM     14  C05 CBD B1001      -6.655  -1.111   0.523  1.00 27.96     0.009 C 
ATOM     15  C03 CBD B1001      -5.444  -2.059   0.451  1.00 27.96     0.027 C 
BRANCH  15  16
ATOM     16  C10 CBD B1001      -5.590  -2.815  -0.875  1.00 27.96    -0.044 C 
ATOM     17  C19 CBD B1001      -6.043  -2.194  -1.965  1.00 27.96    -0.009 C 
ATOM     18  C14 CBD B1001      -5.245  -4.316  -0.927  1.00 27.96     0.026 C 
ENDBRANCH  15  16
ENDBRANCH   1   9
BRANCH   4  19
ATOM     19  C18 CBD B1001       1.379  -3.134   0.026  1.00 27.96     0.026 C 
BRANCH  19  20
ATOM     20  C20 CBD B1001       1.630  -3.438  -1.475  1.00 27.96     0.005 C 
BRANCH  20  21
ATOM     21  C21 CBD B1001       0.849  -4.714  -1.900  1.00 27.96     0.000 C 
BRANCH  21  22
ATOM     22  C22 CBD B1001      -0.110  -4.362  -3.062  1.00 27.96     0.000 C 
ATOM     23  C23 CBD B1001      -1.573  -4.510  -2.577  1.00 27.96     0.000 C 
ENDBRANCH  21  22
ENDBRANCH  20  21
ENDBRANCH  19  20
ENDBRANCH   4  19
TORSDOF 6
ENDMDL
MODEL 4
REMARK VINA RESULT:     0.000      5.484      9.235
REMARK INTER + INTRA:          -1.663
REMARK INTER:                   0.000
REMARK INTRA:                  -1.663
REMARK UNBOUND:                -1.663
REMARK  6 active torsions:
REMARK  status: ('A' for Active; 'I' for Inactive)
REMARK    1  A    between atoms: C03_1  and  C10_8 
REMARK    2  A    between atoms: C04_2  and  C08_6 
REMARK    3  A    between atoms: C15_13  and  C18_16 
REMARK    4  A    between atoms: C18_16  and  C20_18 
REMARK    5  A    between atoms: C20_18  and  C21_19 
REMARK    6  A    between atoms: C21_19  and  C22_20 
ROOT
ATOM      1  C08 CBD B1001       2.541  -0.307  -0.317  1.00 27.96     0.033 A 
ATOM      2  C11 CBD B1001       2.074  -0.052   0.967  1.00 27.96     0.129 A 
ATOM      3  C12 CBD B1001       2.775  -1.633  -0.711  1.00 27.96     0.129 A 
ATOM      4  C15 CBD B1001       2.133  -2.394   1.503  1.00 27.96    -0.018 A 
ATOM      5  C16 CBD B1001       1.884  -1.081   1.883  1.00 27.96     0.023 A 
ATOM      6  C17 CBD B1001       2.581  -2.671   0.209  1.00 27.96     0.023 A 
ATOM      7  O01 CBD B1001       1.828   1.278   1.336  1.00 27.96    -0.190 OA
ATOM      8  O02 CBD B1001       3.226  -1.957  -1.999  1.00 27.96    -0.190 OA
ENDROOT
BRANCH   1   9
ATOM      9  C04 CBD B1001       2.667   0.948  -1.213  1.00 27.96     0.051 C 
ATOM     10  C07 CBD B1001       1.495   0.849  -2.166  1.00 27.96    -0.030 C 
ATOM     11  C09 CBD B1001       1.179   1.967  -2.771  1.00 27.96    -0.048 C 
ATOM     12  C06 CBD B1001       2.281   2.841  -3.375  1.00 27.96     0.022 C 
ATOM     13  C13 CBD B1001      -0.085   2.667  -2.281  1.00 27.96     0.026 C 
ATOM     14  C05 CBD B1001       3.692   2.565  -2.813  1.00 27.96     0.009 C 
ATOM     15  C03 CBD B1001       3.881   1.207  -2.113  1.00 27.96     0.027 C 
BRANCH  15  16
ATOM     16  C10 CBD B1001       5.213   1.313  -1.360  1.00 27.96    -0.044 C 
ATOM     17  C19 CBD B1001       5.566   2.452  -0.760  1.00 27.96    -0.009 C 
ATOM     18  C14 CBD B1001       6.162   0.099  -1.336  1.00 27.96     0.026 C 
ENDBRANCH  15  16
ENDBRANCH   1   9
BRANCH   4  19
ATOM     19  C18 CBD B1001       1.914  -3.526   2.537  1.00 27.96     0.026 C 
BRANCH  19  20
ATOM     20  C20 CBD B1001       2.846  -3.283   3.754  1.00 27.96     0.005 C 
BRANCH  20  21
ATOM     21  C21 CBD B1001       4.330  -3.507   3.344  1.00 27.96     0.000 C 
BRANCH  21  22
ATOM     22  C22 CBD B1001       5.135  -2.214   3.617  1.00 27.96     0.000 C 
ATOM     23  C23 CBD B1001       5.610  -1.616   2.270  1.00 27.96     0.000 C 
ENDBRANCH  21  22
ENDBRANCH  20  21
ENDBRANCH  19  20
ENDBRANCH   4  19
TORSDOF 6
ENDMDL
MODEL 5
REMARK VINA RESULT:     0.000      7.451      9.446
REMARK INTER + INTRA:          -1.663
REMARK INTER:                   0.000
REMARK INTRA:                  -1.663
REMARK UNBOUND:                -1.663
REMARK  6 active torsions:
REMARK  status: ('A' for Active; 'I' for Inactive)
REMARK    1  A    between atoms: C03_1  and  C10_8 
REMARK    2  A    between atoms: C04_2  and  C08_6 
REMARK    3  A    between atoms: C15_13  and  C18_16 
REMARK    4  A    between atoms: C18_16  and  C20_18 
REMARK    5  A    between atoms: C20_18  and  C21_19 
REMARK    6  A    between atoms: C21_19  and  C22_20 
ROOT
ATOM      1  C08 CBD B1001       0.348  -3.635   0.765  1.00 27.96     0.033 A 
ATOM      2  C11 CBD B1001       0.304  -2.488  -0.019  1.00 27.96     0.129 A 
ATOM      3  C12 CBD B1001       1.113  -4.729   0.336  1.00 27.96     0.129 A 
ATOM      4  C15 CBD B1001       1.705  -3.513  -1.680  1.00 27.96    -0.018 A 
ATOM      5  C16 CBD B1001       0.962  -2.424  -1.242  1.00 27.96     0.023 A 
ATOM      6  C17 CBD B1001       1.779  -4.666  -0.894  1.00 27.96     0.023 A 
ATOM      7  O01 CBD B1001      -0.452  -1.397   0.435  1.00 27.96    -0.190 OA
ATOM      8  O02 CBD B1001       1.215  -5.906   1.093  1.00 27.96    -0.190 OA
ENDROOT
BRANCH   1   9
ATOM      9  C04 CBD B1001      -0.415  -3.522   2.106  1.00 27.96     0.051 C 
ATOM     10  C07 CBD B1001       0.674  -3.381   3.148  1.00 27.96    -0.030 C 
ATOM     11  C09 CBD B1001       0.276  -2.907   4.303  1.00 27.96    -0.048 C 
ATOM     12  C06 CBD B1001      -1.004  -3.447   4.945  1.00 27.96     0.022 C 
ATOM     13  C13 CBD B1001       0.662  -1.463   4.610  1.00 27.96     0.026 C 
ATOM     14  C05 CBD B1001      -1.956  -4.162   3.962  1.00 27.96     0.009 C 
ATOM     15  C03 CBD B1001      -1.324  -4.636   2.640  1.00 27.96     0.027 C 
BRANCH  15  16
ATOM     16  C10 CBD B1001      -2.500  -4.984   1.722  1.00 27.96    -0.044 C 
ATOM     17  C19 CBD B1001      -3.610  -4.243   1.726  1.00 27.96    -0.009 C 
ATOM     18  C14 CBD B1001      -2.406  -6.229   0.817  1.00 27.96     0.026 C 
ENDBRANCH  15  16
ENDBRANCH   1   9
BRANCH   4  19
ATOM     19  C18 CBD B1001       2.432  -3.422  -3.044  1.00 27.96     0.026 C 
BRANCH  19  20
ATOM     20  C20 CBD B1001       1.380  -3.189  -4.160  1.00 27.96     0.005 C 
BRANCH  20  21
ATOM     21  C21 CBD B1001       0.506  -4.463  -4.346  1.00 27.96     0.000 C 
BRANCH  21  22
ATOM     22  C22 CBD B1001      -0.980  -4.100  -4.119  1.00 27.96     0.000 C 
ATOM     23  C23 CBD B1001      -1.492  -4.818  -2.846  1.00 27.96     0.000 C 
ENDBRANCH  21  22
ENDBRANCH  20  21
ENDBRANCH  19  20
ENDBRANCH   4  19
TORSDOF 6
ENDMDL
MODEL 6
REMARK VINA RESULT:     0.000      3.866      7.012
REMARK INTER + INTRA:          -1.663
REMARK INTER:                   0.000
REMARK INTRA:                  -1.663
REMARK UNBOUND:                -1.663
REMARK  6 active torsions:
REMARK  status: ('A' for Active; 'I' for Inactive)
REMARK    1  A    between atoms: C03_1  and  C10_8 
REMARK    2  A    between atoms: C04_2  and  C08_6 
REMARK    3  A    between atoms: C15_13  and  C18_16 
REMARK    4  A    between atoms: C18_16  and  C20_18 
REMARK    5  A    between atoms: C20_18  and  C21_19 
REMARK    6  A    between atoms: C21_19  and  C22_20 
ROOT
ATOM      1  C08 CBD B1001       0.312   0.216  -1.395  1.00 27.96     0.033 A 
ATOM      2  C11 CBD B1001      -0.443  -0.749  -0.739  1.00 27.96     0.129 A 
ATOM      3  C12 CBD B1001       1.076  -0.153  -2.512  1.00 27.96     0.129 A 
ATOM      4  C15 CBD B1001       0.356  -2.454  -2.233  1.00 27.96    -0.018 A 
ATOM      5  C16 CBD B1001      -0.415  -2.081  -1.139  1.00 27.96     0.023 A 
ATOM      6  C17 CBD B1001       1.103  -1.493  -2.917  1.00 27.96     0.023 A 
ATOM      7  O01 CBD B1001      -1.215  -0.357   0.364  1.00 27.96    -0.190 OA
ATOM      8  O02 CBD B1001       1.842   0.779  -3.229  1.00 27.96    -0.190 OA
ENDROOT
BRANCH   1   9
ATOM      9  C04 CBD B1001       0.140   1.650  -0.838  1.00 27.96     0.051 C 
ATOM     10  C07 CBD B1001      -0.721   2.352  -1.867  1.00 27.96    -0.030 C 
ATOM     11  C09 CBD B1001      -1.301   3.448  -1.446  1.00 27.96    -0.048 C 
ATOM     12  C06 CBD B1001      -0.498   4.472  -0.641  1.00 27.96     0.022 C 
ATOM     13  C13 CBD B1001      -2.800   3.358  -1.172  1.00 27.96     0.026 C 
ATOM     14  C05 CBD B1001       0.789   3.909  -0.000  1.00 27.96     0.009 C 
ATOM     15  C03 CBD B1001       1.322   2.598  -0.607  1.00 27.96     0.027 C 
BRANCH  15  16
ATOM     16  C10 CBD B1001       2.364   2.075   0.390  1.00 27.96    -0.044 C 
ATOM     17  C19 CBD B1001       2.166   2.195   1.704  1.00 27.96    -0.009 C 
ATOM     18  C14 CBD B1001       3.664   1.444  -0.143  1.00 27.96     0.026 C 
ENDBRANCH  15  16
ENDBRANCH   1   9
BRANCH   4  19
ATOM     19  C18 CBD B1001       0.372  -3.942  -2.662  1.00 27.96     0.026 C 
BRANCH  19  20
ATOM     20  C20 CBD B1001       0.914  -4.799  -1.487  1.00 27.96     0.005 C 
BRANCH  20  21
ATOM     21  C21 CBD B1001       2.427  -4.511  -1.268  1.00 27.96     0.000 C 
BRANCH  21  22
ATOM     22  C22 CBD B1001       2.647  -4.015   0.181  1.00 27.96     0.000 C 
ATOM     23  C23 CBD B1001       3.114  -2.539   0.148  1.00 27.96     0.000 C 
ENDBRANCH  21  22
ENDBRANCH  20  21
ENDBRANCH  19  20
ENDBRANCH   4  19
TORSDOF 6
ENDMDL
MODEL 7
REMARK VINA RESULT:     0.000      3.715      7.363
REMARK INTER + INTRA:          -1.663
REMARK INTER:                   0.000
REMARK INTRA:                  -1.663
REMARK UNBOUND:                -1.663
REMARK  6 active torsions:
REMARK  status: ('A' for Active; 'I' for Inactive)
REMARK    1  A    between atoms: C03_1  and  C10_8 
REMARK    2  A    between atoms: C04_2  and  C08_6 
REMARK    3  A    between atoms: C15_13  and  C18_16 
REMARK    4  A    between atoms: C18_16  and  C20_18 
REMARK    5  A    between atoms: C20_18  and  C21_19 
REMARK    6  A    between atoms: C21_19  and  C22_20 
ROOT
ATOM      1  C08 CBD B1001       0.312   0.216  -1.395  1.00 27.96     0.033 A 
ATOM      2  C11 CBD B1001       0.302   0.528  -0.041  1.00 27.96     0.129 A 
ATOM      3  C12 CBD B1001       0.240  -1.127  -1.790  1.00 27.96     0.129 A 
ATOM      4  C15 CBD B1001       0.223  -1.802   0.542  1.00 27.96    -0.018 A 
ATOM      5  C16 CBD B1001       0.274  -0.469   0.929  1.00 27.96     0.023 A 
ATOM      6  C17 CBD B1001       0.210  -2.132  -0.815  1.00 27.96     0.023 A 
ATOM      7  O01 CBD B1001       0.356   1.878   0.335  1.00 27.96    -0.190 OA
ATOM      8  O02 CBD B1001       0.225  -1.505  -3.141  1.00 27.96    -0.190 OA
ENDROOT
BRANCH   1   9
ATOM      9  C04 CBD B1001       0.315   1.447  -2.334  1.00 27.96     0.051 C 
ATOM     10  C07 CBD B1001      -1.097   1.508  -2.876  1.00 27.96    -0.030 C 
ATOM     11  C09 CBD B1001      -1.438   2.661  -3.398  1.00 27.96    -0.048 C 
ATOM     12  C06 CBD B1001      -0.475   3.381  -4.344  1.00 27.96     0.022 C 
ATOM     13  C13 CBD B1001      -2.387   3.522  -2.570  1.00 27.96     0.026 C 
ATOM     14  C05 CBD B1001       0.993   2.916  -4.233  1.00 27.96     0.009 C 
ATOM     15  C03 CBD B1001       1.213   1.543  -3.572  1.00 27.96     0.027 C 
BRANCH  15  16
ATOM     16  C10 CBD B1001       2.714   1.467  -3.270  1.00 27.96    -0.044 C 
ATOM     17  C19 CBD B1001       3.379   2.546  -2.852  1.00 27.96    -0.009 C 
ATOM     18  C14 CBD B1001       3.460   0.137  -3.492  1.00 27.96     0.026 C 
ENDBRANCH  15  16
ENDBRANCH   1   9
BRANCH   4  19
ATOM     19  C18 CBD B1001       0.191  -2.898   1.636  1.00 27.96     0.026 C 
BRANCH  19  20
ATOM     20  C20 CBD B1001       1.477  -2.786   2.497  1.00 27.96     0.005 C 
BRANCH  20  21
ATOM     21  C21 CBD B1001       2.720  -3.205   1.660  1.00 27.96     0.000 C 
BRANCH  21  22
ATOM     22  C22 CBD B1001       3.729  -2.033   1.623  1.00 27.96     0.000 C 
ATOM     23  C23 CBD B1001       3.836  -1.500   0.173  1.00 27.96     0.000 C 
ENDBRANCH  21  22
ENDBRANCH  20  21
ENDBRANCH  19  20
ENDBRANCH   4  19
TORSDOF 6
ENDMDL
MODEL 8
REMARK VINA RESULT:     0.000      4.403      7.541
REMARK INTER + INTRA:          -1.663
REMARK INTER:                   0.000
REMARK INTRA:                  -1.663
REMARK UNBOUND:                -1.663
REMARK  6 active torsions:
REMARK  status: ('A' for Active; 'I' for Inactive)
REMARK    1  A    between atoms: C03_1  and  C10_8 
REMARK    2  A    between atoms: C04_2  and  C08_6 
REMARK    3  A    between atoms: C15_13  and  C18_16 
REMARK    4  A    between atoms: C18_16  and  C20_18 
REMARK    5  A    between atoms: C20_18  and  C21_19 
REMARK    6  A    between atoms: C21_19  and  C22_20 
ROOT
ATOM      1  C08 CBD B1001       0.455  -0.710  -2.856  1.00 27.96     0.033 A 
ATOM      2  C11 CBD B1001       1.325  -1.710  -2.438  1.00 27.96     0.129 A 
ATOM      3  C12 CBD B1001       0.142   0.337  -1.978  1.00 27.96     0.129 A 
ATOM      4  C15 CBD B1001       1.525  -0.693  -0.270  1.00 27.96    -0.018 A 
ATOM      5  C16 CBD B1001       1.848  -1.719  -1.150  1.00 27.96     0.023 A 
ATOM      6  C17 CBD B1001       0.671   0.332  -0.682  1.00 27.96     0.023 A 
ATOM      7  O01 CBD B1001       1.640  -2.740  -3.337  1.00 27.96    -0.190 OA
ATOM      8  O02 CBD B1001      -0.712   1.388  -2.348  1.00 27.96    -0.190 OA
ENDROOT
BRANCH   1   9
ATOM      9  C04 CBD B1001      -0.008  -0.840  -4.327  1.00 27.96     0.051 C 
ATOM     10  C07 CBD B1001       0.769   0.230  -5.062  1.00 27.96    -0.030 C 
ATOM     11  C09 CBD B1001       0.825   0.079  -6.362  1.00 27.96    -0.048 C 
ATOM     12  C06 CBD B1001      -0.444  -0.282  -7.139  1.00 27.96     0.022 C 
ATOM     13  C13 CBD B1001       2.157  -0.399  -6.931  1.00 27.96     0.026 C 
ATOM     14  C05 CBD B1001      -1.569  -0.890  -6.274  1.00 27.96     0.009 C 
ATOM     15  C03 CBD B1001      -1.465  -0.631  -4.760  1.00 27.96     0.027 C 
BRANCH  15  16
ATOM     16  C10 CBD B1001      -2.461  -1.595  -4.106  1.00 27.96    -0.044 C 
ATOM     17  C19 CBD B1001      -2.624  -2.831  -4.583  1.00 27.96    -0.009 C 
ATOM     18  C14 CBD B1001      -3.307  -1.109  -2.913  1.00 27.96     0.026 C 
ENDBRANCH  15  16
ENDBRANCH   1   9
BRANCH   4  19
ATOM     19  C18 CBD B1001       2.120  -0.719   1.159  1.00 27.96     0.026 C 
BRANCH  19  20
ATOM     20  C20 CBD B1001       1.653  -2.015   1.875  1.00 27.96     0.005 C 
BRANCH  20  21
ATOM     21  C21 CBD B1001       0.126  -1.945   2.164  1.00 27.96     0.000 C 
BRANCH  21  22
ATOM     22  C22 CBD B1001      -0.577  -3.144   1.484  1.00 27.96     0.000 C 
ATOM     23  C23 CBD B1001      -1.503  -2.621   0.359  1.00 27.96     0.000 C 
ENDBRANCH  21  22
ENDBRANCH  20  21
ENDBRANCH  19  20
ENDBRANCH   4  19
TORSDOF 6
ENDMDL
MODEL 9
REMARK VINA RESULT:     0.001      6.863      9.739
REMARK INTER + INTRA:          -1.662
REMARK INTER:                   0.000
REMARK INTRA:                  -1.662
REMARK UNBOUND:                -1.663
REMARK  6 active torsions:
REMARK  status: ('A' for Active; 'I' for Inactive)
REMARK    1  A    between atoms: C03_1  and  C10_8 
REMARK    2  A    between atoms: C04_2  and  C08_6 
REMARK    3  A    between atoms: C15_13  and  C18_16 
REMARK    4  A    between atoms: C18_16  and  C20_18 
REMARK    5  A    between atoms: C20_18  and  C21_19 
REMARK    6  A    between atoms: C21_19  and  C22_20 
ROOT
ATOM      1  C08 CBD B1001       1.915  -0.922   3.064  1.00 27.96     0.033 A 
ATOM      2  C11 CBD B1001       0.964  -1.482   3.909  1.00 27.96     0.129 A 
ATOM      3  C12 CBD B1001       2.419   0.355   3.350  1.00 27.96     0.129 A 
ATOM      4  C15 CBD B1001       0.949   0.495   5.276  1.00 27.96    -0.018 A 
ATOM      5  C16 CBD B1001       0.466  -0.778   5.001  1.00 27.96     0.023 A 
ATOM      6  C17 CBD B1001       1.921   1.063   4.450  1.00 27.96     0.023 A 
ATOM      7  O01 CBD B1001       0.485  -2.767   3.618  1.00 27.96    -0.190 OA
ATOM      8  O02 CBD B1001       3.396   0.965   2.548  1.00 27.96    -0.190 OA
ENDROOT
BRANCH   1   9
ATOM      9  C04 CBD B1001       2.378  -1.853   1.918  1.00 27.96     0.051 C 
ATOM     10  C07 CBD B1001       3.758  -2.310   2.339  1.00 27.96    -0.030 C 
ATOM     11  C09 CBD B1001       4.199  -3.378   1.721  1.00 27.96    -0.048 C 
ATOM     12  C06 CBD B1001       4.042  -3.496   0.203  1.00 27.96     0.022 C 
ATOM     13  C13 CBD B1001       4.208  -4.671   2.530  1.00 27.96     0.026 C 
ATOM     14  C05 CBD B1001       2.968  -2.565  -0.400  1.00 27.96     0.009 C 
ATOM     15  C03 CBD B1001       2.552  -1.368   0.473  1.00 27.96     0.027 C 
BRANCH  15  16
ATOM     16  C10 CBD B1001       1.271  -0.817  -0.165  1.00 27.96    -0.044 C 
ATOM     17  C19 CBD B1001       0.358  -1.643  -0.679  1.00 27.96    -0.009 C 
ATOM     18  C14 CBD B1001       1.064   0.708  -0.242  1.00 27.96     0.026 C 
ENDBRANCH  15  16
ENDBRANCH   1   9
BRANCH   4  19
ATOM     19  C18 CBD B1001       0.383   1.261   6.497  1.00 27.96     0.026 C 
BRANCH  19  20
ATOM     20  C20 CBD B1001      -1.146   1.451   6.308  1.00 27.96     0.005 C 
BRANCH  20  21
ATOM     21  C21 CBD B1001      -1.421   2.449   5.147  1.00 27.96     0.000 C 
BRANCH  21  22
ATOM     22  C22 CBD B1001      -2.288   1.754   4.071  1.00 27.96     0.000 C 
ATOM     23  C23 CBD B1001      -1.460   1.597   2.772  1.00 27.96     0.000 C 
ENDBRANCH  21  22
ENDBRANCH  20  21
ENDBRANCH  19  20
ENDBRANCH   4  19
TORSDOF 6
ENDMDL
