MODEL 1
REMARK VINA RESULT:    -0.000      0.000      0.000
REMARK INTER + INTRA:          -1.663
REMARK INTER:                   0.000
REMARK INTRA:                  -1.663
REMARK UNBOUND:                -1.663
REMARK  6 active torsions:
REMARK  status: ('A' for Active; 'I' for Inactive)
REMARK    1  A    between atoms: C03_1  and  C10_8 
REMARK    2  A    between atoms: C04_2  and  C08_6 
REMARK    3  A    between atoms: C15_13  and  C18_16 
REMARK    4  A    between atoms: C18_16  and  C20_18 
REMARK    5  A    between atoms: C20_18  and  C21_19 
REMARK    6  A    between atoms: C21_19  and  C22_20 
ROOT
ATOM      1  C08 CBD B1001      -3.419   1.961   4.826  1.00 27.96     0.033 A 
ATOM      2  C11 CBD B1001      -2.811   2.774   3.877  1.00 27.96     0.129 A 
ATOM      3  C12 CBD B1001      -4.221   2.544   5.817  1.00 27.96     0.129 A 
ATOM      4  C15 CBD B1001      -3.721   4.742   4.915  1.00 27.96    -0.018 A 
ATOM      5  C16 CBD B1001      -2.943   4.158   3.923  1.00 27.96     0.023 A 
ATOM      6  C17 CBD B1001      -4.357   3.937   5.863  1.00 27.96     0.023 A 
ATOM      7  O01 CBD B1001      -2.028   2.171   2.882  1.00 27.96    -0.190 OA
ATOM      8  O02 CBD B1001      -4.878   1.775   6.789  1.00 27.96    -0.190 OA
ENDROOT
BRANCH   1   9
ATOM      9  C04 CBD B1001      -3.192   0.446   4.607  1.00 27.96     0.051 C 
ATOM     10  C07 CBD B1001      -4.514  -0.058   4.069  1.00 27.96    -0.030 C 
ATOM     11  C09 CBD B1001      -4.459  -1.222   3.469  1.00 27.96    -0.048 C 
ATOM     12  C06 CBD B1001      -3.676  -2.370   4.109  1.00 27.96     0.022 C 
ATOM     13  C13 CBD B1001      -4.561  -1.203   1.947  1.00 27.96     0.026 C 
ATOM     14  C05 CBD B1001      -2.640  -1.923   5.164  1.00 27.96     0.009 C 
ATOM     15  C03 CBD B1001      -2.845  -0.515   5.751  1.00 27.96     0.027 C 
BRANCH  15  16
ATOM     16  C10 CBD B1001      -1.540  -0.179   6.482  1.00 27.96    -0.044 C 
ATOM     17  C19 CBD B1001      -0.363  -0.548   5.976  1.00 27.96    -0.009 C 
ATOM     18  C14 CBD B1001      -1.604   0.558   7.834  1.00 27.96     0.026 C 
ENDBRANCH  15  16
ENDBRANCH   1   9
BRANCH   4  19
ATOM     19  C18 CBD B1001      -3.856   6.284   4.949  1.00 27.96     0.026 C 
BRANCH  19  20
ATOM     20  C20 CBD B1001      -2.447   6.909   5.134  1.00 27.96     0.005 C 
BRANCH  20  21
ATOM     21  C21 CBD B1001      -1.909   6.601   6.561  1.00 27.96     0.000 C 
BRANCH  21  22
ATOM     22  C22 CBD B1001      -0.566   5.841   6.447  1.00 27.96     0.000 C 
ATOM     23  C23 CBD B1001      -0.746   4.404   6.994  1.00 27.96     0.000 C 
ENDBRANCH  21  22
ENDBRANCH  20  21
ENDBRANCH  19  20
ENDBRANCH   4  19
TORSDOF 6
ENDMDL
MODEL 2
REMARK VINA RESULT:    -0.000      4.756      7.556
REMARK INTER + INTRA:          -1.663
REMARK INTER:                   0.000
REMARK INTRA:                  -1.663
REMARK UNBOUND:                -1.663
REMARK  6 active torsions:
REMARK  status: ('A' for Active; 'I' for Inactive)
REMARK    1  A    between atoms: C03_1  and  C10_8 
REMARK    2  A    between atoms: C04_2  and  C08_6 
REMARK    3  A    between atoms: C15_13  and  C18_16 
REMARK    4  A    between atoms: C18_16  and  C20_18 
REMARK    5  A    between atoms: C20_18  and  C21_19 
REMARK    6  A    between atoms: C21_19  and  C22_20 
ROOT
ATOM      1  C08 CBD B1001      -0.579  -1.618   0.287  1.00 27.96     0.033 A 
ATOM      2  C11 CBD B1001      -0.066  -2.181   1.450  1.00 27.96     0.129 A 
ATOM      3  C12 CBD B1001      -0.940  -0.264   0.283  1.00 27.96     0.129 A 
ATOM      4  C15 CBD B1001      -0.329  -0.102   2.626  1.00 27.96    -0.018 A 
ATOM      5  C16 CBD B1001       0.046  -1.440   2.621  1.00 27.96     0.023 A 
ATOM      6  C17 CBD B1001      -0.825   0.485   1.460  1.00 27.96     0.023 A 
ATOM      7  O01 CBD B1001       0.308  -3.533   1.430  1.00 27.96    -0.190 OA
ATOM      8  O02 CBD B1001      -1.443   0.368  -0.865  1.00 27.96    -0.190 OA
ENDROOT
BRANCH   1   9
ATOM      9  C04 CBD B1001      -0.606  -2.576  -0.928  1.00 27.96     0.051 C 
ATOM     10  C07 CBD B1001       0.533  -2.103  -1.805  1.00 27.96    -0.030 C 
ATOM     11  C09 CBD B1001       0.939  -2.970  -2.700  1.00 27.96    -0.048 C 
ATOM     12  C06 CBD B1001      -0.089  -3.737  -3.534  1.00 27.96     0.022 C 
ATOM     13  C13 CBD B1001       2.271  -3.659  -2.418  1.00 27.96     0.026 C 
ATOM     14  C05 CBD B1001      -1.509  -3.763  -2.929  1.00 27.96     0.009 C 
ATOM     15  C03 CBD B1001      -1.808  -2.683  -1.874  1.00 27.96     0.027 C 
BRANCH  15  16
ATOM     16  C10 CBD B1001      -3.110  -3.120  -1.192  1.00 27.96    -0.044 C 
ATOM     17  C19 CBD B1001      -3.346  -4.409  -0.941  1.00 27.96    -0.009 C 
ATOM     18  C14 CBD B1001      -4.166  -2.056  -0.833  1.00 27.96     0.026 C 
ENDBRANCH  15  16
ENDBRANCH   1   9
BRANCH   4  19
ATOM     19  C18 CBD B1001      -0.194   0.707   3.940  1.00 27.96     0.026 C 
BRANCH  19  20
ATOM     20  C20 CBD B1001      -1.078   0.045   5.031  1.00 27.96     0.005 C 
BRANCH  20  21
ATOM     21  C21 CBD B1001      -2.583   0.236   4.689  1.00 27.96     0.000 C 
BRANCH  21  22
ATOM     22  C22 CBD B1001      -3.261  -1.151   4.578  1.00 27.96     0.000 C 
ATOM     23  C23 CBD B1001      -3.705  -1.386   3.114  1.00 27.96     0.000 C 
ENDBRANCH  21  22
ENDBRANCH  20  21
ENDBRANCH  19  20
ENDBRANCH   4  19
TORSDOF 6
ENDMDL
MODEL 3
REMARK VINA RESULT:    -0.000      4.661      7.425
REMARK INTER + INTRA:          -1.663
REMARK INTER:                   0.000
REMARK INTRA:                  -1.663
REMARK UNBOUND:                -1.663
REMARK  6 active torsions:
REMARK  status: ('A' for Active; 'I' for Inactive)
REMARK    1  A    between atoms: C03_1  and  C10_8 
REMARK    2  A    between atoms: C04_2  and  C08_6 
REMARK    3  A    between atoms: C15_13  and  C18_16 
REMARK    4  A    between atoms: C18_16  and  C20_18 
REMARK    5  A    between atoms: C20_18  and  C21_19 
REMARK    6  A    between atoms: C21_19  and  C22_20 
ROOT
ATOM      1  C08 CBD B1001      -2.412  -3.371   2.659  1.00 27.96     0.033 A 
ATOM      2  C11 CBD B1001      -3.414  -4.229   3.096  1.00 27.96     0.129 A 
ATOM      3  C12 CBD B1001      -1.483  -2.875   3.585  1.00 27.96     0.129 A 
ATOM      4  C15 CBD B1001      -2.636  -4.057   5.363  1.00 27.96    -0.018 A 
ATOM      5  C16 CBD B1001      -3.543  -4.562   4.440  1.00 27.96     0.023 A 
ATOM      6  C17 CBD B1001      -1.609  -3.212   4.938  1.00 27.96     0.023 A 
ATOM      7  O01 CBD B1001      -4.323  -4.730   2.153  1.00 27.96    -0.190 OA
ATOM      8  O02 CBD B1001      -0.436  -2.022   3.203  1.00 27.96    -0.190 OA
ENDROOT
BRANCH   1   9
ATOM      9  C04 CBD B1001      -2.397  -3.131   1.131  1.00 27.96     0.051 C 
ATOM     10  C07 CBD B1001      -1.219  -3.941   0.634  1.00 27.96    -0.030 C 
ATOM     11  C09 CBD B1001      -1.223  -4.191  -0.652  1.00 27.96    -0.048 C 
ATOM     12  C06 CBD B1001      -1.550  -3.070  -1.642  1.00 27.96     0.022 C 
ATOM     13  C13 CBD B1001      -1.576  -5.617  -1.063  1.00 27.96     0.026 C 
ATOM     14  C05 CBD B1001      -2.297  -1.871  -1.021  1.00 27.96     0.009 C 
ATOM     15  C03 CBD B1001      -2.204  -1.742   0.511  1.00 27.96     0.027 C 
BRANCH  15  16
ATOM     16  C10 CBD B1001      -3.277  -0.720   0.905  1.00 27.96    -0.044 C 
ATOM     17  C19 CBD B1001      -4.458  -0.701   0.284  1.00 27.96    -0.009 C 
ATOM     18  C14 CBD B1001      -2.964   0.314   2.004  1.00 27.96     0.026 C 
ENDBRANCH  15  16
ENDBRANCH   1   9
BRANCH   4  19
ATOM     19  C18 CBD B1001      -2.796  -4.442   6.855  1.00 27.96     0.026 C 
BRANCH  19  20
ATOM     20  C20 CBD B1001      -4.181  -3.954   7.355  1.00 27.96     0.005 C 
BRANCH  20  21
ATOM     21  C21 CBD B1001      -4.209  -2.400   7.420  1.00 27.96     0.000 C 
BRANCH  21  22
ATOM     22  C22 CBD B1001      -5.355  -1.873   6.523  1.00 27.96     0.000 C 
ATOM     23  C23 CBD B1001      -4.750  -1.088   5.333  1.00 27.96     0.000 C 
ENDBRANCH  21  22
ENDBRANCH  20  21
ENDBRANCH  19  20
ENDBRANCH   4  19
TORSDOF 6
ENDMDL
MODEL 4
REMARK VINA RESULT:     0.000      8.281     11.474
REMARK INTER + INTRA:          -1.663
REMARK INTER:                   0.000
REMARK INTRA:                  -1.663
REMARK UNBOUND:                -1.663
REMARK  6 active torsions:
REMARK  status: ('A' for Active; 'I' for Inactive)
REMARK    1  A    between atoms: C03_1  and  C10_8 
REMARK    2  A    between atoms: C04_2  and  C08_6 
REMARK    3  A    between atoms: C15_13  and  C18_16 
REMARK    4  A    between atoms: C18_16  and  C20_18 
REMARK    5  A    between atoms: C20_18  and  C21_19 
REMARK    6  A    between atoms: C21_19  and  C22_20 
ROOT
ATOM      1  C08 CBD B1001       5.309  -4.738   3.581  1.00 27.96     0.033 A 
ATOM      2  C11 CBD B1001       4.657  -4.399   4.761  1.00 27.96     0.129 A 
ATOM      3  C12 CBD B1001       5.207  -3.886   2.473  1.00 27.96     0.129 A 
ATOM      4  C15 CBD B1001       3.745  -2.422   3.743  1.00 27.96    -0.018 A 
ATOM      5  C16 CBD B1001       3.865  -3.259   4.845  1.00 27.96     0.023 A 
ATOM      6  C17 CBD B1001       4.412  -2.736   2.557  1.00 27.96     0.023 A 
ATOM      7  O01 CBD B1001       4.786  -5.254   5.865  1.00 27.96    -0.190 OA
ATOM      8  O02 CBD B1001       5.859  -4.161   1.261  1.00 27.96    -0.190 OA
ENDROOT
BRANCH   1   9
ATOM      9  C04 CBD B1001       6.169  -6.021   3.673  1.00 27.96     0.051 C 
ATOM     10  C07 CBD B1001       7.595  -5.515   3.720  1.00 27.96    -0.030 C 
ATOM     11  C09 CBD B1001       8.473  -6.380   4.163  1.00 27.96    -0.048 C 
ATOM     12  C06 CBD B1001       8.440  -7.823   3.655  1.00 27.96     0.022 C 
ATOM     13  C13 CBD B1001       9.004  -6.143   5.574  1.00 27.96     0.026 C 
ATOM     14  C05 CBD B1001       7.096  -8.246   3.026  1.00 27.96     0.009 C 
ATOM     15  C03 CBD B1001       6.173  -7.097   2.580  1.00 27.96     0.027 C 
BRANCH  15  16
ATOM     16  C10 CBD B1001       4.806  -7.741   2.324  1.00 27.96    -0.044 C 
ATOM     17  C19 CBD B1001       4.355  -8.716   3.114  1.00 27.96    -0.009 C 
ATOM     18  C14 CBD B1001       3.969  -7.275   1.116  1.00 27.96     0.026 C 
ENDBRANCH  15  16
ENDBRANCH   1   9
BRANCH   4  19
ATOM     19  C18 CBD B1001       2.860  -1.157   3.858  1.00 27.96     0.026 C 
BRANCH  19  20
ATOM     20  C20 CBD B1001       1.405  -1.588   4.185  1.00 27.96     0.005 C 
BRANCH  20  21
ATOM     21  C21 CBD B1001       0.774  -2.312   2.961  1.00 27.96     0.000 C 
BRANCH  21  22
ATOM     22  C22 CBD B1001       0.331  -3.733   3.382  1.00 27.96     0.000 C 
ATOM     23  C23 CBD B1001       1.194  -4.779   2.635  1.00 27.96     0.000 C 
ENDBRANCH  21  22
ENDBRANCH  20  21
ENDBRANCH  19  20
ENDBRANCH   4  19
TORSDOF 6
ENDMDL
MODEL 5
REMARK VINA RESULT:     0.000      5.833      8.830
REMARK INTER + INTRA:          -1.663
REMARK INTER:                   0.000
REMARK INTRA:                  -1.663
REMARK UNBOUND:                -1.663
REMARK  6 active torsions:
REMARK  status: ('A' for Active; 'I' for Inactive)
REMARK    1  A    between atoms: C03_1  and  C10_8 
REMARK    2  A    between atoms: C04_2  and  C08_6 
REMARK    3  A    between atoms: C15_13  and  C18_16 
REMARK    4  A    between atoms: C18_16  and  C20_18 
REMARK    5  A    between atoms: C20_18  and  C21_19 
REMARK    6  A    between atoms: C21_19  and  C22_20 
ROOT
ATOM      1  C08 CBD B1001       0.077  -0.475   0.399  1.00 27.96     0.033 A 
ATOM      2  C11 CBD B1001       1.084  -0.379   1.353  1.00 27.96     0.129 A 
ATOM      3  C12 CBD B1001      -0.131  -1.696  -0.258  1.00 27.96     0.129 A 
ATOM      4  C15 CBD B1001       1.728  -2.662   0.966  1.00 27.96    -0.018 A 
ATOM      5  C16 CBD B1001       1.920  -1.456   1.629  1.00 27.96     0.023 A 
ATOM      6  C17 CBD B1001       0.707  -2.782   0.021  1.00 27.96     0.023 A 
ATOM      7  O01 CBD B1001       1.266   0.844   2.013  1.00 27.96    -0.190 OA
ATOM      8  O02 CBD B1001      -1.145  -1.861  -1.214  1.00 27.96    -0.190 OA
ENDROOT
BRANCH   1   9
ATOM      9  C04 CBD B1001      -0.775   0.807   0.240  1.00 27.96     0.051 C 
ATOM     10  C07 CBD B1001      -2.085   0.475   0.921  1.00 27.96    -0.030 C 
ATOM     11  C09 CBD B1001      -2.822   1.511   1.236  1.00 27.96    -0.048 C 
ATOM     12  C06 CBD B1001      -3.025   2.636   0.218  1.00 27.96     0.022 C 
ATOM     13  C13 CBD B1001      -2.868   1.884   2.715  1.00 27.96     0.026 C 
ATOM     14  C05 CBD B1001      -1.971   2.672  -0.909  1.00 27.96     0.009 C 
ATOM     15  C03 CBD B1001      -1.179   1.370  -1.128  1.00 27.96     0.027 C 
BRANCH  15  16
ATOM     16  C10 CBD B1001       0.004   1.753  -2.027  1.00 27.96    -0.044 C 
ATOM     17  C19 CBD B1001       0.630   2.920  -1.866  1.00 27.96    -0.009 C 
ATOM     18  C14 CBD B1001       0.439   0.789  -3.148  1.00 27.96     0.026 C 
ENDBRANCH  15  16
ENDBRANCH   1   9
BRANCH   4  19
ATOM     19  C18 CBD B1001       2.668  -3.850   1.290  1.00 27.96     0.026 C 
BRANCH  19  20
ATOM     20  C20 CBD B1001       4.128  -3.442   0.955  1.00 27.96     0.005 C 
BRANCH  20  21
ATOM     21  C21 CBD B1001       4.305  -3.303  -0.585  1.00 27.96     0.000 C 
BRANCH  21  22
ATOM     22  C22 CBD B1001       4.784  -1.870  -0.916  1.00 27.96     0.000 C 
ATOM     23  C23 CBD B1001       3.676  -1.133  -1.708  1.00 27.96     0.000 C 
ENDBRANCH  21  22
ENDBRANCH  20  21
ENDBRANCH  19  20
ENDBRANCH   4  19
TORSDOF 6
ENDMDL
MODEL 6
REMARK VINA RESULT:     0.000      3.127      6.597
REMARK INTER + INTRA:          -1.663
REMARK INTER:                   0.000
REMARK INTRA:                  -1.663
REMARK UNBOUND:                -1.663
REMARK  6 active torsions:
REMARK  status: ('A' for Active; 'I' for Inactive)
REMARK    1  A    between atoms: C03_1  and  C10_8 
REMARK    2  A    between atoms: C04_2  and  C08_6 
REMARK    3  A    between atoms: C15_13  and  C18_16 
REMARK    4  A    between atoms: C18_16  and  C20_18 
REMARK    5  A    between atoms: C20_18  and  C21_19 
REMARK    6  A    between atoms: C21_19  and  C22_20 
ROOT
ATOM      1  C08 CBD B1001      -2.707   2.475   1.628  1.00 27.96     0.033 A 
ATOM      2  C11 CBD B1001      -4.090   2.535   1.753  1.00 27.96     0.129 A 
ATOM      3  C12 CBD B1001      -2.137   2.397   0.350  1.00 27.96     0.129 A 
ATOM      4  C15 CBD B1001      -4.358   2.369  -0.630  1.00 27.96    -0.018 A 
ATOM      5  C16 CBD B1001      -4.919   2.466   0.638  1.00 27.96     0.023 A 
ATOM      6  C17 CBD B1001      -2.969   2.331  -0.774  1.00 27.96     0.023 A 
ATOM      7  O01 CBD B1001      -4.642   2.631   3.039  1.00 27.96    -0.190 OA
ATOM      8  O02 CBD B1001      -0.748   2.356   0.157  1.00 27.96    -0.190 OA
ENDROOT
BRANCH   1   9
ATOM      9  C04 CBD B1001      -1.940   2.594   2.967  1.00 27.96     0.051 C 
ATOM     10  C07 CBD B1001      -1.373   3.997   2.952  1.00 27.96    -0.030 C 
ATOM     11  C09 CBD B1001      -1.000   4.454   4.121  1.00 27.96    -0.048 C 
ATOM     12  C06 CBD B1001      -0.182   3.563   5.059  1.00 27.96     0.022 C 
ATOM     13  C13 CBD B1001      -1.908   5.501   4.760  1.00 27.96     0.026 C 
ATOM     14  C05 CBD B1001      -0.270   2.055   4.741  1.00 27.96     0.009 C 
ATOM     15  C03 CBD B1001      -0.749   1.696   3.323  1.00 27.96     0.027 C 
BRANCH  15  16
ATOM     16  C10 CBD B1001      -1.078   0.199   3.365  1.00 27.96    -0.044 C 
ATOM     17  C19 CBD B1001      -1.652  -0.340   4.442  1.00 27.96    -0.009 C 
ATOM     18  C14 CBD B1001      -0.702  -0.688   2.162  1.00 27.96     0.026 C 
ENDBRANCH  15  16
ENDBRANCH   1   9
BRANCH   4  19
ATOM     19  C18 CBD B1001      -5.297   2.296  -1.859  1.00 27.96     0.026 C 
BRANCH  19  20
ATOM     20  C20 CBD B1001      -6.199   1.040  -1.729  1.00 27.96     0.005 C 
BRANCH  20  21
ATOM     21  C21 CBD B1001      -5.347  -0.250  -1.899  1.00 27.96     0.000 C 
BRANCH  21  22
ATOM     22  C22 CBD B1001      -5.491  -1.127  -0.632  1.00 27.96     0.000 C 
ATOM     23  C23 CBD B1001      -4.127  -1.194   0.098  1.00 27.96     0.000 C 
ENDBRANCH  21  22
ENDBRANCH  20  21
ENDBRANCH  19  20
ENDBRANCH   4  19
TORSDOF 6
ENDMDL
MODEL 7
REMARK VINA RESULT:     0.000      5.614      8.787
REMARK INTER + INTRA:          -1.663
REMARK INTER:                   0.000
REMARK INTRA:                  -1.663
REMARK UNBOUND:                -1.663
REMARK  6 active torsions:
REMARK  status: ('A' for Active; 'I' for Inactive)
REMARK    1  A    between atoms: C03_1  and  C10_8 
REMARK    2  A    between atoms: C04_2  and  C08_6 
REMARK    3  A    between atoms: C15_13  and  C18_16 
REMARK    4  A    between atoms: C18_16  and  C20_18 
REMARK    5  A    between atoms: C20_18  and  C21_19 
REMARK    6  A    between atoms: C21_19  and  C22_20 
ROOT
ATOM      1  C08 CBD B1001      -4.577  -2.085  -1.078  1.00 27.96     0.033 A 
ATOM      2  C11 CBD B1001      -3.276  -2.536  -0.886  1.00 27.96     0.129 A 
ATOM      3  C12 CBD B1001      -5.065  -1.939  -2.385  1.00 27.96     0.129 A 
ATOM      4  C15 CBD B1001      -2.911  -2.635  -3.259  1.00 27.96    -0.018 A 
ATOM      5  C16 CBD B1001      -2.437  -2.797  -1.964  1.00 27.96     0.023 A 
ATOM      6  C17 CBD B1001      -4.222  -2.203  -3.471  1.00 27.96     0.023 A 
ATOM      7  O01 CBD B1001      -2.811  -2.694   0.427  1.00 27.96    -0.190 OA
ATOM      8  O02 CBD B1001      -6.375  -1.508  -2.644  1.00 27.96    -0.190 OA
ENDROOT
BRANCH   1   9
ATOM      9  C04 CBD B1001      -5.379  -1.873   0.228  1.00 27.96     0.051 C 
ATOM     10  C07 CBD B1001      -6.334  -3.047   0.276  1.00 27.96    -0.030 C 
ATOM     11  C09 CBD B1001      -6.856  -3.286   1.454  1.00 27.96    -0.048 C 
ATOM     12  C06 CBD B1001      -7.398  -2.128   2.294  1.00 27.96     0.022 C 
ATOM     13  C13 CBD B1001      -6.313  -4.502   2.199  1.00 27.96     0.026 C 
ATOM     14  C05 CBD B1001      -6.861  -0.739   1.884  1.00 27.96     0.009 C 
ATOM     15  C03 CBD B1001      -6.261  -0.642   0.470  1.00 27.96     0.027 C 
BRANCH  15  16
ATOM     16  C10 CBD B1001      -5.506   0.691   0.432  1.00 27.96    -0.044 C 
ATOM     17  C19 CBD B1001      -4.827   1.118   1.497  1.00 27.96    -0.009 C 
ATOM     18  C14 CBD B1001      -5.573   1.557  -0.842  1.00 27.96     0.026 C 
ENDBRANCH  15  16
ENDBRANCH   1   9
BRANCH   4  19
ATOM     19  C18 CBD B1001      -1.961  -2.932  -4.446  1.00 27.96     0.026 C 
BRANCH  19  20
ATOM     20  C20 CBD B1001      -0.732  -1.988  -4.354  1.00 27.96     0.005 C 
BRANCH  20  21
ATOM     21  C21 CBD B1001      -1.161  -0.522  -4.646  1.00 27.96     0.000 C 
BRANCH  21  22
ATOM     22  C22 CBD B1001      -0.797   0.367  -3.433  1.00 27.96     0.000 C 
ATOM     23  C23 CBD B1001      -2.098   0.884  -2.772  1.00 27.96     0.000 C 
ENDBRANCH  21  22
ENDBRANCH  20  21
ENDBRANCH  19  20
ENDBRANCH   4  19
TORSDOF 6
ENDMDL
MODEL 8
REMARK VINA RESULT:     0.000      5.463      8.188
REMARK INTER + INTRA:          -1.663
REMARK INTER:                   0.000
REMARK INTRA:                  -1.663
REMARK UNBOUND:                -1.663
REMARK  6 active torsions:
REMARK  status: ('A' for Active; 'I' for Inactive)
REMARK    1  A    between atoms: C03_1  and  C10_8 
REMARK    2  A    between atoms: C04_2  and  C08_6 
REMARK    3  A    between atoms: C15_13  and  C18_16 
REMARK    4  A    between atoms: C18_16  and  C20_18 
REMARK    5  A    between atoms: C20_18  and  C21_19 
REMARK    6  A    between atoms: C21_19  and  C22_20 
ROOT
ATOM      1  C08 CBD B1001      -1.145   0.498  -0.529  1.00 27.96     0.033 A 
ATOM      2  C11 CBD B1001      -2.098   0.699  -1.521  1.00 27.96     0.129 A 
ATOM      3  C12 CBD B1001       0.207   0.726  -0.822  1.00 27.96     0.129 A 
ATOM      4  C15 CBD B1001      -0.390   1.279  -3.108  1.00 27.96    -0.018 A 
ATOM      5  C16 CBD B1001      -1.731   1.071  -2.809  1.00 27.96     0.023 A 
ATOM      6  C17 CBD B1001       0.579   1.104  -2.118  1.00 27.96     0.023 A 
ATOM      7  O01 CBD B1001      -3.447   0.484  -1.204  1.00 27.96    -0.190 OA
ATOM      8  O02 CBD B1001       1.214   0.562   0.142  1.00 27.96    -0.190 OA
ENDROOT
BRANCH   1   9
ATOM      9  C04 CBD B1001      -1.730   0.116   0.852  1.00 27.96     0.051 C 
ATOM     10  C07 CBD B1001      -1.591   1.375   1.680  1.00 27.96    -0.030 C 
ATOM     11  C09 CBD B1001      -2.340   1.414   2.755  1.00 27.96    -0.048 C 
ATOM     12  C06 CBD B1001      -2.426   0.187   3.665  1.00 27.96     0.022 C 
ATOM     13  C13 CBD B1001      -3.555   2.335   2.698  1.00 27.96     0.026 C 
ATOM     14  C05 CBD B1001      -1.997  -1.135   2.994  1.00 27.96     0.009 C 
ATOM     15  C03 CBD B1001      -1.135  -0.994   1.726  1.00 27.96     0.027 C 
BRANCH  15  16
ATOM     16  C10 CBD B1001      -1.135  -2.381   1.071  1.00 27.96    -0.044 C 
ATOM     17  C19 CBD B1001      -2.236  -3.134   1.075  1.00 27.96    -0.009 C 
ATOM     18  C14 CBD B1001       0.166  -2.915   0.441  1.00 27.96     0.026 C 
ENDBRANCH  15  16
ENDBRANCH   1   9
BRANCH   4  19
ATOM     19  C18 CBD B1001      -0.002   1.695  -4.549  1.00 27.96     0.026 C 
BRANCH  19  20
ATOM     20  C20 CBD B1001      -0.458   0.586  -5.533  1.00 27.96     0.005 C 
BRANCH  20  21
ATOM     21  C21 CBD B1001       0.398  -0.697  -5.327  1.00 27.96     0.000 C 
BRANCH  21  22
ATOM     22  C22 CBD B1001      -0.535  -1.882  -4.979  1.00 27.96     0.000 C 
ATOM     23  C23 CBD B1001      -0.256  -2.339  -3.526  1.00 27.96     0.000 C 
ENDBRANCH  21  22
ENDBRANCH  20  21
ENDBRANCH  19  20
ENDBRANCH   4  19
TORSDOF 6
ENDMDL
MODEL 9
REMARK VINA RESULT:     0.000      4.658      8.668
REMARK INTER + INTRA:          -1.662
REMARK INTER:                   0.000
REMARK INTRA:                  -1.662
REMARK UNBOUND:                -1.663
REMARK  6 active torsions:
REMARK  status: ('A' for Active; 'I' for Inactive)
REMARK    1  A    between atoms: C03_1  and  C10_8 
REMARK    2  A    between atoms: C04_2  and  C08_6 
REMARK    3  A    between atoms: C15_13  and  C18_16 
REMARK    4  A    between atoms: C18_16  and  C20_18 
REMARK    5  A    between atoms: C20_18  and  C21_19 
REMARK    6  A    between atoms: C21_19  and  C22_20 
ROOT
ATOM      1  C08 CBD B1001       2.157   5.852   3.419  1.00 27.96     0.033 A 
ATOM      2  C11 CBD B1001       1.315   4.972   2.750  1.00 27.96     0.129 A 
ATOM      3  C12 CBD B1001       3.113   5.343   4.311  1.00 27.96     0.129 A 
ATOM      4  C15 CBD B1001       2.300   3.096   3.884  1.00 27.96    -0.018 A 
ATOM      5  C16 CBD B1001       1.368   3.602   2.987  1.00 27.96     0.023 A 
ATOM      6  C17 CBD B1001       3.169   3.964   4.548  1.00 27.96     0.023 A 
ATOM      7  O01 CBD B1001       0.379   5.498   1.848  1.00 27.96    -0.190 OA
ATOM      8  O02 CBD B1001       4.005   6.178   5.000  1.00 27.96    -0.190 OA
ENDROOT
BRANCH   1   9
ATOM      9  C04 CBD B1001       1.984   7.335   3.014  1.00 27.96     0.051 C 
ATOM     10  C07 CBD B1001       3.191   7.633   2.151  1.00 27.96    -0.030 C 
ATOM     11  C09 CBD B1001       3.082   8.700   1.398  1.00 27.96    -0.048 C 
ATOM     12  C06 CBD B1001       2.523   9.995   1.992  1.00 27.96     0.022 C 
ATOM     13  C13 CBD B1001       2.860   8.456  -0.091  1.00 27.96     0.026 C 
ATOM     14  C05 CBD B1001       1.707   9.800   3.288  1.00 27.96     0.009 C 
ATOM     15  C03 CBD B1001       1.945   8.476   4.038  1.00 27.96     0.027 C 
BRANCH  15  16
ATOM     16  C10 CBD B1001       0.805   8.369   5.058  1.00 27.96    -0.044 C 
ATOM     17  C19 CBD B1001      -0.428   8.770   4.744  1.00 27.96    -0.009 C 
ATOM     18  C14 CBD B1001       1.107   7.829   6.469  1.00 27.96     0.026 C 
ENDBRANCH  15  16
ENDBRANCH   1   9
BRANCH   4  19
ATOM     19  C18 CBD B1001       2.345   1.568   4.133  1.00 27.96     0.026 C 
BRANCH  19  20
ATOM     20  C20 CBD B1001       0.970   1.108   4.688  1.00 27.96     0.005 C 
BRANCH  20  21
ATOM     21  C21 CBD B1001       0.763   1.660   6.128  1.00 27.96     0.000 C 
BRANCH  21  22
ATOM     22  C22 CBD B1001      -0.523   2.520   6.164  1.00 27.96     0.000 C 
ATOM     23  C23 CBD B1001      -0.143   3.996   6.435  1.00 27.96     0.000 C 
ENDBRANCH  21  22
ENDBRANCH  20  21
ENDBRANCH  19  20
ENDBRANCH   4  19
TORSDOF 6
ENDMDL
