MODEL 1
REMARK VINA RESULT:     0.000      0.000      0.000
REMARK INTER + INTRA:          -1.663
REMARK INTER:                   0.000
REMARK INTRA:                  -1.663
REMARK UNBOUND:                -1.663
REMARK  6 active torsions:
REMARK  status: ('A' for Active; 'I' for Inactive)
REMARK    1  A    between atoms: C03_1  and  C10_8 
REMARK    2  A    between atoms: C04_2  and  C08_6 
REMARK    3  A    between atoms: C15_13  and  C18_16 
REMARK    4  A    between atoms: C18_16  and  C20_18 
REMARK    5  A    between atoms: C20_18  and  C21_19 
REMARK    6  A    between atoms: C21_19  and  C22_20 
ROOT
ATOM      1  C08 CBD B1001      -1.301  -0.574   4.112  1.00 27.96     0.033 A 
ATOM      2  C11 CBD B1001      -0.939   0.451   4.978  1.00 27.96     0.129 A 
ATOM      3  C12 CBD B1001      -1.078  -0.418   2.736  1.00 27.96     0.129 A 
ATOM      4  C15 CBD B1001      -0.204   1.810   3.138  1.00 27.96    -0.018 A 
ATOM      5  C16 CBD B1001      -0.408   1.645   4.502  1.00 27.96     0.023 A 
ATOM      6  C17 CBD B1001      -0.541   0.782   2.255  1.00 27.96     0.023 A 
ATOM      7  O01 CBD B1001      -1.153   0.270   6.352  1.00 27.96    -0.190 OA
ATOM      8  O02 CBD B1001      -1.402  -1.424   1.812  1.00 27.96    -0.190 OA
ENDROOT
BRANCH   1   9
ATOM      9  C04 CBD B1001      -1.848  -1.840   4.812  1.00 27.96     0.051 C 
ATOM     10  C07 CBD B1001      -0.717  -2.842   4.714  1.00 27.96    -0.030 C 
ATOM     11  C09 CBD B1001      -0.800  -3.852   5.544  1.00 27.96    -0.048 C 
ATOM     12  C06 CBD B1001      -2.135  -4.576   5.729  1.00 27.96     0.022 C 
ATOM     13  C13 CBD B1001       0.159  -3.830   6.731  1.00 27.96     0.026 C 
ATOM     14  C05 CBD B1001      -3.367  -3.765   5.275  1.00 27.96     0.009 C 
ATOM     15  C03 CBD B1001      -3.084  -2.597   4.313  1.00 27.96     0.027 C 
BRANCH  15  16
ATOM     16  C10 CBD B1001      -4.369  -1.760   4.290  1.00 27.96    -0.044 C 
ATOM     17  C19 CBD B1001      -5.080  -1.576   5.404  1.00 27.96    -0.009 C 
ATOM     18  C14 CBD B1001      -4.855  -1.164   2.954  1.00 27.96     0.026 C 
ENDBRANCH  15  16
ENDBRANCH   1   9
BRANCH   4  19
ATOM     19  C18 CBD B1001       0.390   3.146   2.627  1.00 27.96     0.026 C 
BRANCH  19  20
ATOM     20  C20 CBD B1001      -0.562   4.305   3.026  1.00 27.96     0.005 C 
BRANCH  20  21
ATOM     21  C21 CBD B1001      -1.887   4.211   2.216  1.00 27.96     0.000 C 
BRANCH  21  22
ATOM     22  C22 CBD B1001      -3.078   4.099   3.197  1.00 27.96     0.000 C 
ATOM     23  C23 CBD B1001      -3.735   2.706   3.043  1.00 27.96     0.000 C 
ENDBRANCH  21  22
ENDBRANCH  20  21
ENDBRANCH  19  20
ENDBRANCH   4  19
TORSDOF 6
ENDMDL
MODEL 2
REMARK VINA RESULT:     0.000      6.753      9.039
REMARK INTER + INTRA:          -1.663
REMARK INTER:                   0.000
REMARK INTRA:                  -1.663
REMARK UNBOUND:                -1.663
REMARK  6 active torsions:
REMARK  status: ('A' for Active; 'I' for Inactive)
REMARK    1  A    between atoms: C03_1  and  C10_8 
REMARK    2  A    between atoms: C04_2  and  C08_6 
REMARK    3  A    between atoms: C15_13  and  C18_16 
REMARK    4  A    between atoms: C18_16  and  C20_18 
REMARK    5  A    between atoms: C20_18  and  C21_19 
REMARK    6  A    between atoms: C21_19  and  C22_20 
ROOT
ATOM      1  C08 CBD B1001       1.364  -2.700  -1.947  1.00 27.96     0.033 A 
ATOM      2  C11 CBD B1001       0.894  -3.712  -2.776  1.00 27.96     0.129 A 
ATOM      3  C12 CBD B1001       2.268  -1.759  -2.459  1.00 27.96     0.129 A 
ATOM      4  C15 CBD B1001       2.255  -2.919  -4.591  1.00 27.96    -0.018 A 
ATOM      5  C16 CBD B1001       1.344  -3.838  -4.086  1.00 27.96     0.023 A 
ATOM      6  C17 CBD B1001       2.720  -1.882  -3.779  1.00 27.96     0.023 A 
ATOM      7  O01 CBD B1001      -0.024  -4.633  -2.252  1.00 27.96    -0.190 OA
ATOM      8  O02 CBD B1001       2.762  -0.702  -1.679  1.00 27.96    -0.190 OA
ENDROOT
BRANCH   1   9
ATOM      9  C04 CBD B1001       0.737  -2.690  -0.532  1.00 27.96     0.051 C 
ATOM     10  C07 CBD B1001      -0.231  -1.527  -0.557  1.00 27.96    -0.030 C 
ATOM     11  C09 CBD B1001      -1.137  -1.542   0.389  1.00 27.96    -0.048 C 
ATOM     12  C06 CBD B1001      -0.727  -1.858   1.828  1.00 27.96     0.022 C 
ATOM     13  C13 CBD B1001      -2.553  -1.918  -0.038  1.00 27.96     0.026 C 
ATOM     14  C05 CBD B1001       0.629  -2.585   1.959  1.00 27.96     0.009 C 
ATOM     15  C03 CBD B1001       1.566  -2.481   0.741  1.00 27.96     0.027 C 
BRANCH  15  16
ATOM     16  C10 CBD B1001       2.654  -3.537   0.966  1.00 27.96    -0.044 C 
ATOM     17  C19 CBD B1001       2.352  -4.721   1.502  1.00 27.96    -0.009 C 
ATOM     18  C14 CBD B1001       4.114  -3.202   0.602  1.00 27.96     0.026 C 
ENDBRANCH  15  16
ENDBRANCH   1   9
BRANCH   4  19
ATOM     19  C18 CBD B1001       2.742  -3.075  -6.053  1.00 27.96     0.026 C 
BRANCH  19  20
ATOM     20  C20 CBD B1001       3.444  -4.451  -6.205  1.00 27.96     0.005 C 
BRANCH  20  21
ATOM     21  C21 CBD B1001       4.785  -4.457  -5.417  1.00 27.96     0.000 C 
BRANCH  21  22
ATOM     22  C22 CBD B1001       4.759  -5.599  -4.374  1.00 27.96     0.000 C 
ATOM     23  C23 CBD B1001       4.765  -4.990  -2.951  1.00 27.96     0.000 C 
ENDBRANCH  21  22
ENDBRANCH  20  21
ENDBRANCH  19  20
ENDBRANCH   4  19
TORSDOF 6
ENDMDL
MODEL 3
REMARK VINA RESULT:     0.000      3.701      5.784
REMARK INTER + INTRA:          -1.663
REMARK INTER:                   0.000
REMARK INTRA:                  -1.663
REMARK UNBOUND:                -1.663
REMARK  6 active torsions:
REMARK  status: ('A' for Active; 'I' for Inactive)
REMARK    1  A    between atoms: C03_1  and  C10_8 
REMARK    2  A    between atoms: C04_2  and  C08_6 
REMARK    3  A    between atoms: C15_13  and  C18_16 
REMARK    4  A    between atoms: C18_16  and  C20_18 
REMARK    5  A    between atoms: C20_18  and  C21_19 
REMARK    6  A    between atoms: C21_19  and  C22_20 
ROOT
ATOM      1  C08 CBD B1001       0.998  -0.457   1.810  1.00 27.96     0.033 A 
ATOM      2  C11 CBD B1001       0.249  -0.633   0.653  1.00 27.96     0.129 A 
ATOM      3  C12 CBD B1001       1.837   0.662   1.920  1.00 27.96     0.129 A 
ATOM      4  C15 CBD B1001       1.199   1.349  -0.319  1.00 27.96    -0.018 A 
ATOM      5  C16 CBD B1001       0.355   0.250  -0.416  1.00 27.96     0.023 A 
ATOM      6  C17 CBD B1001       1.942   1.554   0.846  1.00 27.96     0.023 A 
ATOM      7  O01 CBD B1001      -0.598  -1.748   0.569  1.00 27.96    -0.190 OA
ATOM      8  O02 CBD B1001       2.601   0.907   3.071  1.00 27.96    -0.190 OA
ENDROOT
BRANCH   1   9
ATOM      9  C04 CBD B1001       0.736  -1.514   2.909  1.00 27.96     0.051 C 
ATOM     10  C07 CBD B1001      -0.096  -0.786   3.942  1.00 27.96    -0.030 C 
ATOM     11  C09 CBD B1001      -0.744  -1.560   4.776  1.00 27.96    -0.048 C 
ATOM     12  C06 CBD B1001      -0.029  -2.752   5.417  1.00 27.96     0.022 C 
ATOM     13  C13 CBD B1001      -2.250  -1.677   4.559  1.00 27.96     0.026 C 
ATOM     14  C05 CBD B1001       1.244  -3.206   4.671  1.00 27.96     0.009 C 
ATOM     15  C03 CBD B1001       1.864  -2.174   3.711  1.00 27.96     0.027 C 
BRANCH  15  16
ATOM     16  C10 CBD B1001       2.870  -2.956   2.859  1.00 27.96    -0.044 C 
ATOM     17  C19 CBD B1001       2.597  -4.197   2.451  1.00 27.96    -0.009 C 
ATOM     18  C14 CBD B1001       4.224  -2.307   2.509  1.00 27.96     0.026 C 
ENDBRANCH  15  16
ENDBRANCH   1   9
BRANCH   4  19
ATOM     19  C18 CBD B1001       1.301   2.322  -1.520  1.00 27.96     0.026 C 
BRANCH  19  20
ATOM     20  C20 CBD B1001       1.813   1.539  -2.759  1.00 27.96     0.005 C 
BRANCH  20  21
ATOM     21  C21 CBD B1001       3.298   1.125  -2.553  1.00 27.96     0.000 C 
BRANCH  21  22
ATOM     22  C22 CBD B1001       3.418  -0.414  -2.659  1.00 27.96     0.000 C 
ATOM     23  C23 CBD B1001       3.825  -0.989  -1.280  1.00 27.96     0.000 C 
ENDBRANCH  21  22
ENDBRANCH  20  21
ENDBRANCH  19  20
ENDBRANCH   4  19
TORSDOF 6
ENDMDL
MODEL 4
REMARK VINA RESULT:     0.000      2.419      5.804
REMARK INTER + INTRA:          -1.663
REMARK INTER:                   0.000
REMARK INTRA:                  -1.663
REMARK UNBOUND:                -1.663
REMARK  6 active torsions:
REMARK  status: ('A' for Active; 'I' for Inactive)
REMARK    1  A    between atoms: C03_1  and  C10_8 
REMARK    2  A    between atoms: C04_2  and  C08_6 
REMARK    3  A    between atoms: C15_13  and  C18_16 
REMARK    4  A    between atoms: C18_16  and  C20_18 
REMARK    5  A    between atoms: C20_18  and  C21_19 
REMARK    6  A    between atoms: C21_19  and  C22_20 
ROOT
ATOM      1  C08 CBD B1001      -3.230   0.924   1.891  1.00 27.96     0.033 A 
ATOM      2  C11 CBD B1001      -4.316   1.530   2.512  1.00 27.96     0.129 A 
ATOM      3  C12 CBD B1001      -3.413   0.291   0.653  1.00 27.96     0.129 A 
ATOM      4  C15 CBD B1001      -5.777   0.832   0.736  1.00 27.96    -0.018 A 
ATOM      5  C16 CBD B1001      -5.588   1.475   1.953  1.00 27.96     0.023 A 
ATOM      6  C17 CBD B1001      -4.692   0.237   0.088  1.00 27.96     0.023 A 
ATOM      7  O01 CBD B1001      -4.110   2.174   3.740  1.00 27.96    -0.190 OA
ATOM      8  O02 CBD B1001      -2.352  -0.320  -0.033  1.00 27.96    -0.190 OA
ENDROOT
BRANCH   1   9
ATOM      9  C04 CBD B1001      -1.885   1.107   2.635  1.00 27.96     0.051 C 
ATOM     10  C07 CBD B1001      -1.137   2.134   1.813  1.00 27.96    -0.030 C 
ATOM     11  C09 CBD B1001      -0.141   2.718   2.431  1.00 27.96    -0.048 C 
ATOM     12  C06 CBD B1001       0.841   1.879   3.251  1.00 27.96     0.022 C 
ATOM     13  C13 CBD B1001      -0.373   4.160   2.873  1.00 27.96     0.026 C 
ATOM     14  C05 CBD B1001       0.306   0.488   3.656  1.00 27.96     0.009 C 
ATOM     15  C03 CBD B1001      -0.884  -0.038   2.834  1.00 27.96     0.027 C 
BRANCH  15  16
ATOM     16  C10 CBD B1001      -1.438  -1.229   3.624  1.00 27.96    -0.044 C 
ATOM     17  C19 CBD B1001      -1.483  -1.198   4.958  1.00 27.96    -0.009 C 
ATOM     18  C14 CBD B1001      -1.907  -2.485   2.864  1.00 27.96     0.026 C 
ENDBRANCH  15  16
ENDBRANCH   1   9
BRANCH   4  19
ATOM     19  C18 CBD B1001      -7.202   0.783   0.130  1.00 27.96     0.026 C 
BRANCH  19  20
ATOM     20  C20 CBD B1001      -8.144   0.045   1.117  1.00 27.96     0.005 C 
BRANCH  20  21
ATOM     21  C21 CBD B1001      -7.773  -1.464   1.184  1.00 27.96     0.000 C 
BRANCH  21  22
ATOM     22  C22 CBD B1001      -7.427  -1.840   2.644  1.00 27.96     0.000 C 
ATOM     23  C23 CBD B1001      -5.927  -2.213   2.734  1.00 27.96     0.000 C 
ENDBRANCH  21  22
ENDBRANCH  20  21
ENDBRANCH  19  20
ENDBRANCH   4  19
TORSDOF 6
ENDMDL
MODEL 5
REMARK VINA RESULT:     0.000      6.096      8.845
REMARK INTER + INTRA:          -1.663
REMARK INTER:                   0.000
REMARK INTRA:                  -1.663
REMARK UNBOUND:                -1.663
REMARK  6 active torsions:
REMARK  status: ('A' for Active; 'I' for Inactive)
REMARK    1  A    between atoms: C03_1  and  C10_8 
REMARK    2  A    between atoms: C04_2  and  C08_6 
REMARK    3  A    between atoms: C15_13  and  C18_16 
REMARK    4  A    between atoms: C18_16  and  C20_18 
REMARK    5  A    between atoms: C20_18  and  C21_19 
REMARK    6  A    between atoms: C21_19  and  C22_20 
ROOT
ATOM      1  C08 CBD B1001       4.643  -0.864   2.972  1.00 27.96     0.033 A 
ATOM      2  C11 CBD B1001       4.023  -1.075   4.198  1.00 27.96     0.129 A 
ATOM      3  C12 CBD B1001       3.873  -0.889   1.800  1.00 27.96     0.129 A 
ATOM      4  C15 CBD B1001       1.901  -1.406   3.118  1.00 27.96    -0.018 A 
ATOM      5  C16 CBD B1001       2.664  -1.361   4.278  1.00 27.96     0.023 A 
ATOM      6  C17 CBD B1001       2.504  -1.174   1.880  1.00 27.96     0.023 A 
ATOM      7  O01 CBD B1001       4.806  -1.028   5.360  1.00 27.96    -0.190 OA
ATOM      8  O02 CBD B1001       4.437  -0.662   0.535  1.00 27.96    -0.190 OA
ENDROOT
BRANCH   1   9
ATOM      9  C04 CBD B1001       6.151  -0.530   3.068  1.00 27.96     0.051 C 
ATOM     10  C07 CBD B1001       6.226   0.955   2.789  1.00 27.96    -0.030 C 
ATOM     11  C09 CBD B1001       7.338   1.534   3.170  1.00 27.96    -0.048 C 
ATOM     12  C06 CBD B1001       8.682   0.870   2.867  1.00 27.96     0.022 C 
ATOM     13  C13 CBD B1001       7.251   2.408   4.417  1.00 27.96     0.026 C 
ATOM     14  C05 CBD B1001       8.591  -0.639   2.554  1.00 27.96     0.009 C 
ATOM     15  C03 CBD B1001       7.200  -1.155   2.140  1.00 27.96     0.027 C 
BRANCH  15  16
ATOM     16  C10 CBD B1001       7.285  -2.684   2.224  1.00 27.96    -0.044 C 
ATOM     17  C19 CBD B1001       7.975  -3.274   3.202  1.00 27.96    -0.009 C 
ATOM     18  C14 CBD B1001       6.597  -3.536   1.140  1.00 27.96     0.026 C 
ENDBRANCH  15  16
ENDBRANCH   1   9
BRANCH   4  19
ATOM     19  C18 CBD B1001       0.390  -1.724   3.230  1.00 27.96     0.026 C 
BRANCH  19  20
ATOM     20  C20 CBD B1001       0.217  -3.126   3.871  1.00 27.96     0.005 C 
BRANCH  20  21
ATOM     21  C21 CBD B1001       0.704  -4.228   2.888  1.00 27.96     0.000 C 
BRANCH  21  22
ATOM     22  C22 CBD B1001       1.827  -5.053   3.562  1.00 27.96     0.000 C 
ATOM     23  C23 CBD B1001       3.158  -4.813   2.809  1.00 27.96     0.000 C 
ENDBRANCH  21  22
ENDBRANCH  20  21
ENDBRANCH  19  20
ENDBRANCH   4  19
TORSDOF 6
ENDMDL
MODEL 6
REMARK VINA RESULT:     0.000      6.184      7.569
REMARK INTER + INTRA:          -1.663
REMARK INTER:                   0.000
REMARK INTRA:                  -1.663
REMARK UNBOUND:                -1.663
REMARK  6 active torsions:
REMARK  status: ('A' for Active; 'I' for Inactive)
REMARK    1  A    between atoms: C03_1  and  C10_8 
REMARK    2  A    between atoms: C04_2  and  C08_6 
REMARK    3  A    between atoms: C15_13  and  C18_16 
REMARK    4  A    between atoms: C18_16  and  C20_18 
REMARK    5  A    between atoms: C20_18  and  C21_19 
REMARK    6  A    between atoms: C21_19  and  C22_20 
ROOT
ATOM      1  C08 CBD B1001       5.186  -4.233   3.529  1.00 27.96     0.033 A 
ATOM      2  C11 CBD B1001       5.211  -3.521   4.722  1.00 27.96     0.129 A 
ATOM      3  C12 CBD B1001       5.759  -3.667   2.381  1.00 27.96     0.129 A 
ATOM      4  C15 CBD B1001       6.299  -1.667   3.646  1.00 27.96    -0.018 A 
ATOM      5  C16 CBD B1001       5.748  -2.239   4.786  1.00 27.96     0.023 A 
ATOM      6  C17 CBD B1001       6.302  -2.378   2.444  1.00 27.96     0.023 A 
ATOM      7  O01 CBD B1001       4.650  -4.110   5.865  1.00 27.96    -0.190 OA
ATOM      8  O02 CBD B1001       5.784  -4.344   1.152  1.00 27.96    -0.190 OA
ENDROOT
BRANCH   1   9
ATOM      9  C04 CBD B1001       4.580  -5.652   3.645  1.00 27.96     0.051 C 
ATOM     10  C07 CBD B1001       5.776  -6.577   3.583  1.00 27.96    -0.030 C 
ATOM     11  C09 CBD B1001       5.558  -7.792   4.024  1.00 27.96    -0.048 C 
ATOM     12  C06 CBD B1001       4.290  -8.537   3.602  1.00 27.96     0.022 C 
ATOM     13  C13 CBD B1001       6.154  -8.133   5.387  1.00 27.96     0.026 C 
ATOM     14  C05 CBD B1001       3.162  -7.624   3.075  1.00 27.96     0.009 C 
ATOM     15  C03 CBD B1001       3.594  -6.220   2.617  1.00 27.96     0.027 C 
BRANCH  15  16
ATOM     16  C10 CBD B1001       2.297  -5.414   2.476  1.00 27.96    -0.044 C 
ATOM     17  C19 CBD B1001       1.298  -5.577   3.345  1.00 27.96    -0.009 C 
ATOM     18  C14 CBD B1001       2.142  -4.439   1.292  1.00 27.96     0.026 C 
ENDBRANCH  15  16
ENDBRANCH   1   9
BRANCH   4  19
ATOM     19  C18 CBD B1001       6.893  -0.240   3.738  1.00 27.96     0.026 C 
BRANCH  19  20
ATOM     20  C20 CBD B1001       5.773   0.744   4.171  1.00 27.96     0.005 C 
BRANCH  20  21
ATOM     21  C21 CBD B1001       4.730   0.903   3.029  1.00 27.96     0.000 C 
BRANCH  21  22
ATOM     22  C22 CBD B1001       3.332   0.500   3.554  1.00 27.96     0.000 C 
ATOM     23  C23 CBD B1001       2.862  -0.780   2.821  1.00 27.96     0.000 C 
ENDBRANCH  21  22
ENDBRANCH  20  21
ENDBRANCH  19  20
ENDBRANCH   4  19
TORSDOF 6
ENDMDL
MODEL 7
REMARK VINA RESULT:     0.000      2.765      7.434
REMARK INTER + INTRA:          -1.663
REMARK INTER:                   0.000
REMARK INTRA:                  -1.663
REMARK UNBOUND:                -1.663
REMARK  6 active torsions:
REMARK  status: ('A' for Active; 'I' for Inactive)
REMARK    1  A    between atoms: C03_1  and  C10_8 
REMARK    2  A    between atoms: C04_2  and  C08_6 
REMARK    3  A    between atoms: C15_13  and  C18_16 
REMARK    4  A    between atoms: C18_16  and  C20_18 
REMARK    5  A    between atoms: C20_18  and  C21_19 
REMARK    6  A    between atoms: C21_19  and  C22_20 
ROOT
ATOM      1  C08 CBD B1001      -3.272   3.984   4.337  1.00 27.96     0.033 A 
ATOM      2  C11 CBD B1001      -3.568   3.183   5.433  1.00 27.96     0.129 A 
ATOM      3  C12 CBD B1001      -3.971   3.789   3.137  1.00 27.96     0.129 A 
ATOM      4  C15 CBD B1001      -5.188   1.952   4.155  1.00 27.96    -0.018 A 
ATOM      5  C16 CBD B1001      -4.507   2.161   5.347  1.00 27.96     0.023 A 
ATOM      6  C17 CBD B1001      -4.919   2.762   3.050  1.00 27.96     0.023 A 
ATOM      7  O01 CBD B1001      -2.871   3.405   6.630  1.00 27.96    -0.190 OA
ATOM      8  O02 CBD B1001      -3.734   4.579   2.002  1.00 27.96    -0.190 OA
ENDROOT
BRANCH   1   9
ATOM      9  C04 CBD B1001      -2.226   5.090   4.617  1.00 27.96     0.051 C 
ATOM     10  C07 CBD B1001      -3.037   6.365   4.689  1.00 27.96    -0.030 C 
ATOM     11  C09 CBD B1001      -2.434   7.371   5.273  1.00 27.96    -0.048 C 
ATOM     12  C06 CBD B1001      -0.979   7.689   4.925  1.00 27.96     0.022 C 
ATOM     13  C13 CBD B1001      -2.916   7.725   6.677  1.00 27.96     0.026 C 
ATOM     14  C05 CBD B1001      -0.211   6.520   4.271  1.00 27.96     0.009 C 
ATOM     15  C03 CBD B1001      -1.079   5.411   3.650  1.00 27.96     0.027 C 
BRANCH  15  16
ATOM     16  C10 CBD B1001      -0.127   4.238   3.389  1.00 27.96    -0.044 C 
ATOM     17  C19 CBD B1001       0.845   3.946   4.255  1.00 27.96    -0.009 C 
ATOM     18  C14 CBD B1001      -0.279   3.420   2.092  1.00 27.96     0.026 C 
ENDBRANCH  15  16
ENDBRANCH   1   9
BRANCH   4  19
ATOM     19  C18 CBD B1001      -6.231   0.809   4.080  1.00 27.96     0.026 C 
BRANCH  19  20
ATOM     20  C20 CBD B1001      -5.521  -0.540   4.370  1.00 27.96     0.005 C 
BRANCH  20  21
ATOM     21  C21 CBD B1001      -4.563  -0.903   3.200  1.00 27.96     0.000 C 
BRANCH  21  22
ATOM     22  C22 CBD B1001      -3.125  -1.062   3.748  1.00 27.96     0.000 C 
ATOM     23  C23 CBD B1001      -2.231   0.062   3.170  1.00 27.96     0.000 C 
ENDBRANCH  21  22
ENDBRANCH  20  21
ENDBRANCH  19  20
ENDBRANCH   4  19
TORSDOF 6
ENDMDL
MODEL 8
REMARK VINA RESULT:     0.000      7.172      9.894
REMARK INTER + INTRA:          -1.663
REMARK INTER:                   0.000
REMARK INTRA:                  -1.663
REMARK UNBOUND:                -1.663
REMARK  6 active torsions:
REMARK  status: ('A' for Active; 'I' for Inactive)
REMARK    1  A    between atoms: C03_1  and  C10_8 
REMARK    2  A    between atoms: C04_2  and  C08_6 
REMARK    3  A    between atoms: C15_13  and  C18_16 
REMARK    4  A    between atoms: C18_16  and  C20_18 
REMARK    5  A    between atoms: C20_18  and  C21_19 
REMARK    6  A    between atoms: C21_19  and  C22_20 
ROOT
ATOM      1  C08 CBD B1001       6.540  -0.160   3.005  1.00 27.96     0.033 A 
ATOM      2  C11 CBD B1001       5.300   0.078   2.424  1.00 27.96     0.129 A 
ATOM      3  C12 CBD B1001       7.294  -1.264   2.582  1.00 27.96     0.129 A 
ATOM      4  C15 CBD B1001       5.509  -1.890   1.061  1.00 27.96    -0.018 A 
ATOM      5  C16 CBD B1001       4.773  -0.785   1.469  1.00 27.96     0.023 A 
ATOM      6  C17 CBD B1001       6.767  -2.132   1.619  1.00 27.96     0.023 A 
ATOM      7  O01 CBD B1001       4.567   1.196   2.847  1.00 27.96    -0.190 OA
ATOM      8  O02 CBD B1001       8.562  -1.545   3.114  1.00 27.96    -0.190 OA
ENDROOT
BRANCH   1   9
ATOM      9  C04 CBD B1001       6.984   0.915   4.026  1.00 27.96     0.051 C 
ATOM     10  C07 CBD B1001       8.045   1.710   3.296  1.00 27.96    -0.030 C 
ATOM     11  C09 CBD B1001       8.306   2.886   3.811  1.00 27.96    -0.048 C 
ATOM     12  C06 CBD B1001       8.485   3.028   5.325  1.00 27.96     0.022 C 
ATOM     13  C13 CBD B1001       7.766   4.093   3.050  1.00 27.96     0.026 C 
ATOM     14  C05 CBD B1001       7.883   1.870   6.148  1.00 27.96     0.009 C 
ATOM     15  C03 CBD B1001       7.620   0.564   5.376  1.00 27.96     0.027 C 
BRANCH  15  16
ATOM     16  C10 CBD B1001       6.729  -0.284   6.291  1.00 27.96    -0.044 C 
ATOM     17  C19 CBD B1001       5.772   0.285   7.026  1.00 27.96    -0.009 C 
ATOM     18  C14 CBD B1001       6.976  -1.803   6.385  1.00 27.96     0.026 C 
ENDBRANCH  15  16
ENDBRANCH   1   9
BRANCH   4  19
ATOM     19  C18 CBD B1001       4.906  -2.839  -0.005  1.00 27.96     0.026 C 
BRANCH  19  20
ATOM     20  C20 CBD B1001       3.578  -3.428   0.541  1.00 27.96     0.005 C 
BRANCH  20  21
ATOM     21  C21 CBD B1001       3.870  -4.408   1.714  1.00 27.96     0.000 C 
BRANCH  21  22
ATOM     22  C22 CBD B1001       3.124  -3.924   2.980  1.00 27.96     0.000 C 
ATOM     23  C23 CBD B1001       4.158  -3.487   4.046  1.00 27.96     0.000 C 
ENDBRANCH  21  22
ENDBRANCH  20  21
ENDBRANCH  19  20
ENDBRANCH   4  19
TORSDOF 6
ENDMDL
MODEL 9
REMARK VINA RESULT:     0.000      7.150      8.906
REMARK INTER + INTRA:          -1.662
REMARK INTER:                   0.000
REMARK INTRA:                  -1.662
REMARK UNBOUND:                -1.663
REMARK  6 active torsions:
REMARK  status: ('A' for Active; 'I' for Inactive)
REMARK    1  A    between atoms: C03_1  and  C10_8 
REMARK    2  A    between atoms: C04_2  and  C08_6 
REMARK    3  A    between atoms: C15_13  and  C18_16 
REMARK    4  A    between atoms: C18_16  and  C20_18 
REMARK    5  A    between atoms: C20_18  and  C21_19 
REMARK    6  A    between atoms: C21_19  and  C22_20 
ROOT
ATOM      1  C08 CBD B1001       1.026   5.665  -0.418  1.00 27.96     0.033 A 
ATOM      2  C11 CBD B1001       1.481   6.653  -1.283  1.00 27.96     0.129 A 
ATOM      3  C12 CBD B1001       0.926   4.344  -0.878  1.00 27.96     0.129 A 
ATOM      4  C15 CBD B1001       1.673   5.060  -3.073  1.00 27.96    -0.018 A 
ATOM      5  C16 CBD B1001       1.790   6.364  -2.609  1.00 27.96     0.023 A 
ATOM      6  C17 CBD B1001       1.239   4.051  -2.211  1.00 27.96     0.023 A 
ATOM      7  O01 CBD B1001       1.592   7.964  -0.801  1.00 27.96    -0.190 OA
ATOM      8  O02 CBD B1001       0.494   3.299  -0.047  1.00 27.96    -0.190 OA
ENDROOT
BRANCH   1   9
ATOM      9  C04 CBD B1001       0.758   6.154   1.025  1.00 27.96     0.051 C 
ATOM     10  C07 CBD B1001       1.921   5.611   1.828  1.00 27.96    -0.030 C 
ATOM     11  C09 CBD B1001       2.111   6.192   2.987  1.00 27.96    -0.048 C 
ATOM     12  C06 CBD B1001       0.916   6.465   3.904  1.00 27.96     0.022 C 
ATOM     13  C13 CBD B1001       3.301   7.142   3.081  1.00 27.96     0.026 C 
ATOM     14  C05 CBD B1001      -0.451   6.457   3.187  1.00 27.96     0.009 C 
ATOM     15  C03 CBD B1001      -0.488   5.748   1.821  1.00 27.96     0.027 C 
BRANCH  15  16
ATOM     16  C10 CBD B1001      -1.814   6.167   1.174  1.00 27.96    -0.044 C 
ATOM     17  C19 CBD B1001      -2.276   7.411   1.316  1.00 27.96    -0.009 C 
ATOM     18  C14 CBD B1001      -2.630   5.123   0.388  1.00 27.96     0.026 C 
ENDBRANCH  15  16
ENDBRANCH   1   9
BRANCH   4  19
ATOM     19  C18 CBD B1001       2.024   4.759  -4.551  1.00 27.96     0.026 C 
BRANCH  19  20
ATOM     20  C20 CBD B1001       1.088   5.591  -5.469  1.00 27.96     0.005 C 
BRANCH  20  21
ATOM     21  C21 CBD B1001      -0.370   5.058  -5.371  1.00 27.96     0.000 C 
BRANCH  21  22
ATOM     22  C22 CBD B1001      -1.301   6.202  -4.904  1.00 27.96     0.000 C 
ATOM     23  C23 CBD B1001      -1.855   5.866  -3.498  1.00 27.96     0.000 C 
ENDBRANCH  21  22
ENDBRANCH  20  21
ENDBRANCH  19  20
ENDBRANCH   4  19
TORSDOF 6
ENDMDL
