MODEL 1
REMARK VINA RESULT:    -0.000      0.000      0.000
REMARK INTER + INTRA:          -1.663
REMARK INTER:                   0.000
REMARK INTRA:                  -1.663
REMARK UNBOUND:                -1.663
REMARK  6 active torsions:
REMARK  status: ('A' for Active; 'I' for Inactive)
REMARK    1  A    between atoms: C03_1  and  C10_8 
REMARK    2  A    between atoms: C04_2  and  C08_6 
REMARK    3  A    between atoms: C15_13  and  C18_16 
REMARK    4  A    between atoms: C18_16  and  C20_18 
REMARK    5  A    between atoms: C20_18  and  C21_19 
REMARK    6  A    between atoms: C21_19  and  C22_20 
ROOT
ATOM      1  C08 CBD B1001       5.142  -6.182   2.047  1.00 27.96     0.033 A 
ATOM      2  C11 CBD B1001       5.859  -5.362   1.183  1.00 27.96     0.129 A 
ATOM      3  C12 CBD B1001       5.042  -5.828   3.401  1.00 27.96     0.129 A 
ATOM      4  C15 CBD B1001       6.438  -3.887   2.988  1.00 27.96    -0.018 A 
ATOM      5  C16 CBD B1001       6.519  -4.229   1.645  1.00 27.96     0.023 A 
ATOM      6  C17 CBD B1001       5.704  -4.686   3.867  1.00 27.96     0.023 A 
ATOM      7  O01 CBD B1001       5.932  -5.722  -0.171  1.00 27.96    -0.190 OA
ATOM      8  O02 CBD B1001       4.315  -6.602   4.319  1.00 27.96    -0.190 OA
ENDROOT
BRANCH   1   9
ATOM      9  C04 CBD B1001       4.447  -7.382   1.361  1.00 27.96     0.051 C 
ATOM     10  C07 CBD B1001       2.983  -6.998   1.324  1.00 27.96    -0.030 C 
ATOM     11  C09 CBD B1001       2.255  -7.678   0.474  1.00 27.96    -0.048 C 
ATOM     12  C06 CBD B1001       2.405  -9.198   0.392  1.00 27.96     0.022 C 
ATOM     13  C13 CBD B1001       1.835  -6.943  -0.796  1.00 27.96     0.026 C 
ATOM     14  C05 CBD B1001       3.725  -9.740   0.982  1.00 27.96     0.009 C 
ATOM     15  C03 CBD B1001       4.463  -8.798   1.950  1.00 27.96     0.027 C 
BRANCH  15  16
ATOM     16  C10 CBD B1001       5.866  -9.394   2.117  1.00 27.96    -0.044 C 
ATOM     17  C19 CBD B1001       6.497  -9.948   1.080  1.00 27.96    -0.009 C 
ATOM     18  C14 CBD B1001       6.526  -9.384   3.510  1.00 27.96     0.026 C 
ENDBRANCH  15  16
ENDBRANCH   1   9
BRANCH   4  19
ATOM     19  C18 CBD B1001       7.180  -2.620   3.483  1.00 27.96     0.026 C 
BRANCH  19  20
ATOM     20  C20 CBD B1001       8.698  -2.786   3.209  1.00 27.96     0.005 C 
BRANCH  20  21
ATOM     21  C21 CBD B1001       9.291  -3.887   4.135  1.00 27.96     0.000 C 
BRANCH  21  22
ATOM     22  C22 CBD B1001       9.932  -4.994   3.265  1.00 27.96     0.000 C 
ATOM     23  C23 CBD B1001       9.127  -6.306   3.435  1.00 27.96     0.000 C 
ENDBRANCH  21  22
ENDBRANCH  20  21
ENDBRANCH  19  20
ENDBRANCH   4  19
TORSDOF 6
ENDMDL
MODEL 2
REMARK VINA RESULT:    -0.000     11.447     14.139
REMARK INTER + INTRA:          -1.663
REMARK INTER:                   0.000
REMARK INTRA:                  -1.663
REMARK UNBOUND:                -1.663
REMARK  6 active torsions:
REMARK  status: ('A' for Active; 'I' for Inactive)
REMARK    1  A    between atoms: C03_1  and  C10_8 
REMARK    2  A    between atoms: C04_2  and  C08_6 
REMARK    3  A    between atoms: C15_13  and  C18_16 
REMARK    4  A    between atoms: C18_16  and  C20_18 
REMARK    5  A    between atoms: C20_18  and  C21_19 
REMARK    6  A    between atoms: C21_19  and  C22_20 
ROOT
ATOM      1  C08 CBD B1001      -5.332   1.340   0.487  1.00 27.96     0.033 A 
ATOM      2  C11 CBD B1001      -4.991   0.962  -0.806  1.00 27.96     0.129 A 
ATOM      3  C12 CBD B1001      -4.398   1.171   1.519  1.00 27.96     0.129 A 
ATOM      4  C15 CBD B1001      -2.842   0.187  -0.062  1.00 27.96    -0.018 A 
ATOM      5  C16 CBD B1001      -3.762   0.374  -1.085  1.00 27.96     0.023 A 
ATOM      6  C17 CBD B1001      -3.160   0.581   1.240  1.00 27.96     0.023 A 
ATOM      7  O01 CBD B1001      -5.931   1.156  -1.829  1.00 27.96    -0.190 OA
ATOM      8  O02 CBD B1001      -4.675   1.552   2.841  1.00 27.96    -0.190 OA
ENDROOT
BRANCH   1   9
ATOM      9  C04 CBD B1001      -6.724   2.004   0.612  1.00 27.96     0.051 C 
ATOM     10  C07 CBD B1001      -6.423   3.475   0.806  1.00 27.96    -0.030 C 
ATOM     11  C09 CBD B1001      -7.429   4.280   0.571  1.00 27.96    -0.048 C 
ATOM     12  C06 CBD B1001      -8.815   3.946   1.127  1.00 27.96     0.022 C 
ATOM     13  C13 CBD B1001      -7.365   5.080  -0.727  1.00 27.96     0.026 C 
ATOM     14  C05 CBD B1001      -9.004   2.464   1.516  1.00 27.96     0.009 C 
ATOM     15  C03 CBD B1001      -7.711   1.657   1.733  1.00 27.96     0.027 C 
BRANCH  15  16
ATOM     16  C10 CBD B1001      -8.142   0.186   1.761  1.00 27.96    -0.044 C 
ATOM     17  C19 CBD B1001      -9.100  -0.257   0.945  1.00 27.96    -0.009 C 
ATOM     18  C14 CBD B1001      -7.484  -0.772   2.773  1.00 27.96     0.026 C 
ENDBRANCH  15  16
ENDBRANCH   1   9
BRANCH   4  19
ATOM     19  C18 CBD B1001      -1.478  -0.469  -0.393  1.00 27.96     0.026 C 
BRANCH  19  20
ATOM     20  C20 CBD B1001      -1.728  -1.890  -0.963  1.00 27.96     0.005 C 
BRANCH  20  21
ATOM     21  C21 CBD B1001      -2.272  -2.826   0.155  1.00 27.96     0.000 C 
BRANCH  21  22
ATOM     22  C22 CBD B1001      -3.645  -3.393  -0.278  1.00 27.96     0.000 C 
ATOM     23  C23 CBD B1001      -4.744  -2.837   0.660  1.00 27.96     0.000 C 
ENDBRANCH  21  22
ENDBRANCH  20  21
ENDBRANCH  19  20
ENDBRANCH   4  19
TORSDOF 6
ENDMDL
MODEL 3
REMARK VINA RESULT:     0.000      5.974      8.742
REMARK INTER + INTRA:          -1.663
REMARK INTER:                   0.000
REMARK INTRA:                  -1.663
REMARK UNBOUND:                -1.663
REMARK  6 active torsions:
REMARK  status: ('A' for Active; 'I' for Inactive)
REMARK    1  A    between atoms: C03_1  and  C10_8 
REMARK    2  A    between atoms: C04_2  and  C08_6 
REMARK    3  A    between atoms: C15_13  and  C18_16 
REMARK    4  A    between atoms: C18_16  and  C20_18 
REMARK    5  A    between atoms: C20_18  and  C21_19 
REMARK    6  A    between atoms: C21_19  and  C22_20 
ROOT
ATOM      1  C08 CBD B1001       1.212  -2.464  -1.158  1.00 27.96     0.033 A 
ATOM      2  C11 CBD B1001      -0.084  -2.807  -1.526  1.00 27.96     0.129 A 
ATOM      3  C12 CBD B1001       1.460  -1.189  -0.629  1.00 27.96     0.129 A 
ATOM      4  C15 CBD B1001      -0.882  -0.622  -0.921  1.00 27.96    -0.018 A 
ATOM      5  C16 CBD B1001      -1.127  -1.893  -1.426  1.00 27.96     0.023 A 
ATOM      6  C17 CBD B1001       0.409  -0.268  -0.526  1.00 27.96     0.023 A 
ATOM      7  O01 CBD B1001      -0.316  -4.092  -2.035  1.00 27.96    -0.190 OA
ATOM      8  O02 CBD B1001       2.741  -0.790  -0.220  1.00 27.96    -0.190 OA
ENDROOT
BRANCH   1   9
ATOM      9  C04 CBD B1001       2.242  -3.608  -1.306  1.00 27.96     0.051 C 
ATOM     10  C07 CBD B1001       2.502  -4.066   0.113  1.00 27.96    -0.030 C 
ATOM     11  C09 CBD B1001       3.051  -5.251   0.220  1.00 27.96    -0.048 C 
ATOM     12  C06 CBD B1001       4.229  -5.626  -0.681  1.00 27.96     0.022 C 
ATOM     13  C13 CBD B1001       2.137  -6.379   0.689  1.00 27.96     0.026 C 
ATOM     14  C05 CBD B1001       4.365  -4.753  -1.948  1.00 27.96     0.009 C 
ATOM     15  C03 CBD B1001       3.636  -3.397  -1.909  1.00 27.96     0.027 C 
BRANCH  15  16
ATOM     16  C10 CBD B1001       3.627  -2.892  -3.357  1.00 27.96    -0.044 C 
ATOM     17  C19 CBD B1001       3.448  -3.740  -4.371  1.00 27.96    -0.009 C 
ATOM     18  C14 CBD B1001       3.867  -1.395  -3.633  1.00 27.96     0.026 C 
ENDBRANCH  15  16
ENDBRANCH   1   9
BRANCH   4  19
ATOM     19  C18 CBD B1001      -2.059   0.380  -0.817  1.00 27.96     0.026 C 
BRANCH  19  20
ATOM     20  C20 CBD B1001      -2.638   0.625  -2.235  1.00 27.96     0.005 C 
BRANCH  20  21
ATOM     21  C21 CBD B1001      -1.617   1.417  -3.101  1.00 27.96     0.000 C 
BRANCH  21  22
ATOM     22  C22 CBD B1001      -1.276   0.595  -4.367  1.00 27.96     0.000 C 
ATOM     23  C23 CBD B1001       0.210   0.162  -4.308  1.00 27.96     0.000 C 
ENDBRANCH  21  22
ENDBRANCH  20  21
ENDBRANCH  19  20
ENDBRANCH   4  19
TORSDOF 6
ENDMDL
MODEL 4
REMARK VINA RESULT:     0.000      8.837     11.828
REMARK INTER + INTRA:          -1.663
REMARK INTER:                   0.000
REMARK INTRA:                  -1.663
REMARK UNBOUND:                -1.663
REMARK  6 active torsions:
REMARK  status: ('A' for Active; 'I' for Inactive)
REMARK    1  A    between atoms: C03_1  and  C10_8 
REMARK    2  A    between atoms: C04_2  and  C08_6 
REMARK    3  A    between atoms: C15_13  and  C18_16 
REMARK    4  A    between atoms: C18_16  and  C20_18 
REMARK    5  A    between atoms: C20_18  and  C21_19 
REMARK    6  A    between atoms: C21_19  and  C22_20 
ROOT
ATOM      1  C08 CBD B1001      -0.651   0.261  -1.727  1.00 27.96     0.033 A 
ATOM      2  C11 CBD B1001      -0.027  -0.925  -1.361  1.00 27.96     0.129 A 
ATOM      3  C12 CBD B1001      -2.006   0.240  -2.090  1.00 27.96     0.129 A 
ATOM      4  C15 CBD B1001      -2.042  -2.167  -1.775  1.00 27.96    -0.018 A 
ATOM      5  C16 CBD B1001      -0.706  -2.138  -1.397  1.00 27.96     0.023 A 
ATOM      6  C17 CBD B1001      -2.691  -0.980  -2.125  1.00 27.96     0.023 A 
ATOM      7  O01 CBD B1001       1.323  -0.881  -0.983  1.00 27.96    -0.190 OA
ATOM      8  O02 CBD B1001      -2.698   1.407  -2.448  1.00 27.96    -0.190 OA
ENDROOT
BRANCH   1   9
ATOM      9  C04 CBD B1001       0.241   1.519  -1.599  1.00 27.96     0.051 C 
ATOM     10  C07 CBD B1001      -0.273   2.222  -0.361  1.00 27.96    -0.030 C 
ATOM     11  C09 CBD B1001       0.547   3.102   0.155  1.00 27.96    -0.048 C 
ATOM     12  C06 CBD B1001       1.266   4.098  -0.758  1.00 27.96     0.022 C 
ATOM     13  C13 CBD B1001       1.254   2.693   1.444  1.00 27.96     0.026 C 
ATOM     14  C05 CBD B1001       1.320   3.675  -2.242  1.00 27.96     0.009 C 
ATOM     15  C03 CBD B1001       0.295   2.611  -2.674  1.00 27.96     0.027 C 
BRANCH  15  16
ATOM     16  C10 CBD B1001       0.763   2.121  -4.049  1.00 27.96    -0.044 C 
ATOM     17  C19 CBD B1001       2.063   1.969  -4.310  1.00 27.96    -0.009 C 
ATOM     18  C14 CBD B1001      -0.283   1.840  -5.145  1.00 27.96     0.026 C 
ENDBRANCH  15  16
ENDBRANCH   1   9
BRANCH   4  19
ATOM     19  C18 CBD B1001      -2.781  -3.528  -1.808  1.00 27.96     0.026 C 
BRANCH  19  20
ATOM     20  C20 CBD B1001      -2.065  -4.464  -2.818  1.00 27.96     0.005 C 
BRANCH  20  21
ATOM     21  C21 CBD B1001      -2.278  -3.948  -4.270  1.00 27.96     0.000 C 
BRANCH  21  22
ATOM     22  C22 CBD B1001      -0.902  -3.682  -4.924  1.00 27.96     0.000 C 
ATOM     23  C23 CBD B1001      -0.745  -2.164  -5.181  1.00 27.96     0.000 C 
ENDBRANCH  21  22
ENDBRANCH  20  21
ENDBRANCH  19  20
ENDBRANCH   4  19
TORSDOF 6
ENDMDL
MODEL 5
REMARK VINA RESULT:     0.000      6.533      9.368
REMARK INTER + INTRA:          -1.663
REMARK INTER:                   0.000
REMARK INTRA:                  -1.663
REMARK UNBOUND:                -1.663
REMARK  6 active torsions:
REMARK  status: ('A' for Active; 'I' for Inactive)
REMARK    1  A    between atoms: C03_1  and  C10_8 
REMARK    2  A    between atoms: C04_2  and  C08_6 
REMARK    3  A    between atoms: C15_13  and  C18_16 
REMARK    4  A    between atoms: C18_16  and  C20_18 
REMARK    5  A    between atoms: C20_18  and  C21_19 
REMARK    6  A    between atoms: C21_19  and  C22_20 
ROOT
ATOM      1  C08 CBD B1001       0.126  -1.706   3.650  1.00 27.96     0.033 A 
ATOM      2  C11 CBD B1001      -1.065  -1.024   3.432  1.00 27.96     0.129 A 
ATOM      3  C12 CBD B1001       0.877  -2.143   2.549  1.00 27.96     0.129 A 
ATOM      4  C15 CBD B1001      -0.818  -1.259   1.054  1.00 27.96    -0.018 A 
ATOM      5  C16 CBD B1001      -1.550  -0.811   2.146  1.00 27.96     0.023 A 
ATOM      6  C17 CBD B1001       0.392  -1.927   1.254  1.00 27.96     0.023 A 
ATOM      7  O01 CBD B1001      -1.793  -0.578   4.545  1.00 27.96    -0.190 OA
ATOM      8  O02 CBD B1001       2.097  -2.818   2.703  1.00 27.96    -0.190 OA
ENDROOT
BRANCH   1   9
ATOM      9  C04 CBD B1001       0.530  -1.827   5.139  1.00 27.96     0.051 C 
ATOM     10  C07 CBD B1001       1.659  -0.832   5.304  1.00 27.96    -0.030 C 
ATOM     11  C09 CBD B1001       1.917  -0.490   6.542  1.00 27.96    -0.048 C 
ATOM     12  C06 CBD B1001       1.998  -1.567   7.626  1.00 27.96     0.022 C 
ATOM     13  C13 CBD B1001       1.463   0.903   6.967  1.00 27.96     0.026 C 
ATOM     14  C05 CBD B1001       1.311  -2.899   7.253  1.00 27.96     0.009 C 
ATOM     15  C03 CBD B1001       1.064  -3.128   5.751  1.00 27.96     0.027 C 
BRANCH  15  16
ATOM     16  C10 CBD B1001       0.091  -4.310   5.668  1.00 27.96    -0.044 C 
ATOM     17  C19 CBD B1001      -0.898  -4.440   6.555  1.00 27.96    -0.009 C 
ATOM     18  C14 CBD B1001       0.289  -5.372   4.570  1.00 27.96     0.026 C 
ENDBRANCH  15  16
ENDBRANCH   1   9
BRANCH   4  19
ATOM     19  C18 CBD B1001      -1.374  -1.011  -0.371  1.00 27.96     0.026 C 
BRANCH  19  20
ATOM     20  C20 CBD B1001      -2.751  -1.715  -0.502  1.00 27.96     0.005 C 
BRANCH  20  21
ATOM     21  C21 CBD B1001      -2.566  -3.260  -0.494  1.00 27.96     0.000 C 
BRANCH  21  22
ATOM     22  C22 CBD B1001      -3.382  -3.865   0.672  1.00 27.96     0.000 C 
ATOM     23  C23 CBD B1001      -2.409  -4.471   1.714  1.00 27.96     0.000 C 
ENDBRANCH  21  22
ENDBRANCH  20  21
ENDBRANCH  19  20
ENDBRANCH   4  19
TORSDOF 6
ENDMDL
MODEL 6
REMARK VINA RESULT:     0.000     14.087     16.932
REMARK INTER + INTRA:          -1.663
REMARK INTER:                   0.000
REMARK INTRA:                  -1.663
REMARK UNBOUND:                -1.663
REMARK  6 active torsions:
REMARK  status: ('A' for Active; 'I' for Inactive)
REMARK    1  A    between atoms: C03_1  and  C10_8 
REMARK    2  A    between atoms: C04_2  and  C08_6 
REMARK    3  A    between atoms: C15_13  and  C18_16 
REMARK    4  A    between atoms: C18_16  and  C20_18 
REMARK    5  A    between atoms: C20_18  and  C21_19 
REMARK    6  A    between atoms: C21_19  and  C22_20 
ROOT
ATOM      1  C08 CBD B1001      -0.585   5.857  -4.846  1.00 27.96     0.033 A 
ATOM      2  C11 CBD B1001      -1.565   5.414  -5.726  1.00 27.96     0.129 A 
ATOM      3  C12 CBD B1001      -0.298   5.099  -3.701  1.00 27.96     0.129 A 
ATOM      4  C15 CBD B1001      -2.032   3.519  -4.324  1.00 27.96    -0.018 A 
ATOM      5  C16 CBD B1001      -2.300   4.262  -5.467  1.00 27.96     0.023 A 
ATOM      6  C17 CBD B1001      -1.035   3.938  -3.440  1.00 27.96     0.023 A 
ATOM      7  O01 CBD B1001      -1.825   6.175  -6.875  1.00 27.96    -0.190 OA
ATOM      8  O02 CBD B1001       0.694   5.482  -2.786  1.00 27.96    -0.190 OA
ENDROOT
BRANCH   1   9
ATOM      9  C04 CBD B1001       0.154   7.137  -5.304  1.00 27.96     0.051 C 
ATOM     10  C07 CBD B1001       1.508   6.644  -5.767  1.00 27.96    -0.030 C 
ATOM     11  C09 CBD B1001       2.168   7.479  -6.531  1.00 27.96    -0.048 C 
ATOM     12  C06 CBD B1001       2.245   8.959  -6.150  1.00 27.96     0.022 C 
ATOM     13  C13 CBD B1001       2.231   7.131  -8.016  1.00 27.96     0.026 C 
ATOM     14  C05 CBD B1001       1.156   9.418  -5.157  1.00 27.96     0.009 C 
ATOM     15  C03 CBD B1001       0.466   8.300  -4.354  1.00 27.96     0.027 C 
BRANCH  15  16
ATOM     16  C10 CBD B1001      -0.772   8.948  -3.724  1.00 27.96    -0.044 C 
ATOM     17  C19 CBD B1001      -1.486   9.850  -4.400  1.00 27.96    -0.009 C 
ATOM     18  C14 CBD B1001      -1.163   8.576  -2.280  1.00 27.96     0.026 C 
ENDBRANCH  15  16
ENDBRANCH   1   9
BRANCH   4  19
ATOM     19  C18 CBD B1001      -2.861   2.239  -4.054  1.00 27.96     0.026 C 
BRANCH  19  20
ATOM     20  C20 CBD B1001      -4.359   2.626  -3.932  1.00 27.96     0.005 C 
BRANCH  20  21
ATOM     21  C21 CBD B1001      -4.597   3.442  -2.629  1.00 27.96     0.000 C 
BRANCH  21  22
ATOM     22  C22 CBD B1001      -5.203   4.818  -2.992  1.00 27.96     0.000 C 
ATOM     23  C23 CBD B1001      -4.186   5.931  -2.642  1.00 27.96     0.000 C 
ENDBRANCH  21  22
ENDBRANCH  20  21
ENDBRANCH  19  20
ENDBRANCH   4  19
TORSDOF 6
ENDMDL
MODEL 7
REMARK VINA RESULT:     0.000      7.073      9.392
REMARK INTER + INTRA:          -1.663
REMARK INTER:                   0.000
REMARK INTRA:                  -1.663
REMARK UNBOUND:                -1.663
REMARK  6 active torsions:
REMARK  status: ('A' for Active; 'I' for Inactive)
REMARK    1  A    between atoms: C03_1  and  C10_8 
REMARK    2  A    between atoms: C04_2  and  C08_6 
REMARK    3  A    between atoms: C15_13  and  C18_16 
REMARK    4  A    between atoms: C18_16  and  C20_18 
REMARK    5  A    between atoms: C20_18  and  C21_19 
REMARK    6  A    between atoms: C21_19  and  C22_20 
ROOT
ATOM      1  C08 CBD B1001       4.698  -1.561  -4.440  1.00 27.96     0.033 A 
ATOM      2  C11 CBD B1001       4.496  -1.179  -3.119  1.00 27.96     0.129 A 
ATOM      3  C12 CBD B1001       4.207  -2.800  -4.877  1.00 27.96     0.129 A 
ATOM      4  C15 CBD B1001       3.391  -3.258  -2.638  1.00 27.96    -0.018 A 
ATOM      5  C16 CBD B1001       3.862  -2.023  -2.213  1.00 27.96     0.023 A 
ATOM      6  C17 CBD B1001       3.566  -3.649  -3.967  1.00 27.96     0.023 A 
ATOM      7  O01 CBD B1001       4.977   0.071  -2.704  1.00 27.96    -0.190 OA
ATOM      8  O02 CBD B1001       4.359  -3.233  -6.203  1.00 27.96    -0.190 OA
ENDROOT
BRANCH   1   9
ATOM      9  C04 CBD B1001       5.392  -0.491  -5.316  1.00 27.96     0.051 C 
ATOM     10  C07 CBD B1001       4.280   0.067  -6.179  1.00 27.96    -0.030 C 
ATOM     11  C09 CBD B1001       4.541   1.224  -6.734  1.00 27.96    -0.048 C 
ATOM     12  C06 CBD B1001       5.897   1.458  -7.402  1.00 27.96     0.022 C 
ATOM     13  C13 CBD B1001       3.834   2.436  -6.134  1.00 27.96     0.026 C 
ATOM     14  C05 CBD B1001       7.004   0.478  -6.956  1.00 27.96     0.009 C 
ATOM     15  C03 CBD B1001       6.518  -0.828  -6.300  1.00 27.96     0.027 C 
BRANCH  15  16
ATOM     16  C10 CBD B1001       7.759  -1.449  -5.649  1.00 27.96    -0.044 C 
ATOM     17  C19 CBD B1001       8.673  -0.679  -5.054  1.00 27.96    -0.009 C 
ATOM     18  C14 CBD B1001       7.964  -2.975  -5.723  1.00 27.96     0.026 C 
ENDBRANCH  15  16
ENDBRANCH   1   9
BRANCH   4  19
ATOM     19  C18 CBD B1001       2.687  -4.183  -1.614  1.00 27.96     0.026 C 
BRANCH  19  20
ATOM     20  C20 CBD B1001       3.680  -4.512  -0.467  1.00 27.96     0.005 C 
BRANCH  20  21
ATOM     21  C21 CBD B1001       4.821  -5.428  -0.995  1.00 27.96     0.000 C 
BRANCH  21  22
ATOM     22  C22 CBD B1001       6.183  -4.734  -0.757  1.00 27.96     0.000 C 
ATOM     23  C23 CBD B1001       6.821  -4.381  -2.123  1.00 27.96     0.000 C 
ENDBRANCH  21  22
ENDBRANCH  20  21
ENDBRANCH  19  20
ENDBRANCH   4  19
TORSDOF 6
ENDMDL
MODEL 8
REMARK VINA RESULT:     0.000      5.469      7.206
REMARK INTER + INTRA:          -1.663
REMARK INTER:                   0.000
REMARK INTRA:                  -1.663
REMARK UNBOUND:                -1.663
REMARK  6 active torsions:
REMARK  status: ('A' for Active; 'I' for Inactive)
REMARK    1  A    between atoms: C03_1  and  C10_8 
REMARK    2  A    between atoms: C04_2  and  C08_6 
REMARK    3  A    between atoms: C15_13  and  C18_16 
REMARK    4  A    between atoms: C18_16  and  C20_18 
REMARK    5  A    between atoms: C20_18  and  C21_19 
REMARK    6  A    between atoms: C21_19  and  C22_20 
ROOT
ATOM      1  C08 CBD B1001       3.824  -0.161  -0.077  1.00 27.96     0.033 A 
ATOM      2  C11 CBD B1001       4.642   0.772   0.549  1.00 27.96     0.129 A 
ATOM      3  C12 CBD B1001       2.857  -0.841   0.678  1.00 27.96     0.129 A 
ATOM      4  C15 CBD B1001       3.608   0.322   2.672  1.00 27.96    -0.018 A 
ATOM      5  C16 CBD B1001       4.552   1.007   1.917  1.00 27.96     0.023 A 
ATOM      6  C17 CBD B1001       2.764  -0.603   2.055  1.00 27.96     0.023 A 
ATOM      7  O01 CBD B1001       5.591   1.455  -0.225  1.00 27.96    -0.190 OA
ATOM      8  O02 CBD B1001       1.988  -1.779   0.101  1.00 27.96    -0.190 OA
ENDROOT
BRANCH   1   9
ATOM      9  C04 CBD B1001       4.037  -0.275  -1.605  1.00 27.96     0.051 C 
ATOM     10  C07 CBD B1001       2.837   0.426  -2.205  1.00 27.96    -0.030 C 
ATOM     11  C09 CBD B1001       2.973   0.779  -3.459  1.00 27.96    -0.048 C 
ATOM     12  C06 CBD B1001       3.568  -0.209  -4.466  1.00 27.96     0.022 C 
ATOM     13  C13 CBD B1001       3.187   2.266  -3.723  1.00 27.96     0.026 C 
ATOM     14  C05 CBD B1001       4.380  -1.356  -3.828  1.00 27.96     0.009 C 
ATOM     15  C03 CBD B1001       4.109  -1.621  -2.336  1.00 27.96     0.027 C 
BRANCH  15  16
ATOM     16  C10 CBD B1001       5.247  -2.534  -1.865  1.00 27.96    -0.044 C 
ATOM     17  C19 CBD B1001       6.490  -2.360  -2.317  1.00 27.96    -0.009 C 
ATOM     18  C14 CBD B1001       4.933  -3.686  -0.890  1.00 27.96     0.026 C 
ENDBRANCH  15  16
ENDBRANCH   1   9
BRANCH   4  19
ATOM     19  C18 CBD B1001       3.524   0.599   4.193  1.00 27.96     0.026 C 
BRANCH  19  20
ATOM     20  C20 CBD B1001       4.885   0.242   4.846  1.00 27.96     0.005 C 
BRANCH  20  21
ATOM     21  C21 CBD B1001       5.108  -1.297   4.812  1.00 27.96     0.000 C 
BRANCH  21  22
ATOM     22  C22 CBD B1001       6.417  -1.607   4.049  1.00 27.96     0.000 C 
ATOM     23  C23 CBD B1001       6.078  -2.357   2.738  1.00 27.96     0.000 C 
ENDBRANCH  21  22
ENDBRANCH  20  21
ENDBRANCH  19  20
ENDBRANCH   4  19
TORSDOF 6
ENDMDL
MODEL 9
REMARK VINA RESULT:     0.000      8.367     12.950
REMARK INTER + INTRA:          -1.663
REMARK INTER:                   0.000
REMARK INTRA:                  -1.663
REMARK UNBOUND:                -1.663
REMARK  6 active torsions:
REMARK  status: ('A' for Active; 'I' for Inactive)
REMARK    1  A    between atoms: C03_1  and  C10_8 
REMARK    2  A    between atoms: C04_2  and  C08_6 
REMARK    3  A    between atoms: C15_13  and  C18_16 
REMARK    4  A    between atoms: C18_16  and  C20_18 
REMARK    5  A    between atoms: C20_18  and  C21_19 
REMARK    6  A    between atoms: C21_19  and  C22_20 
ROOT
ATOM      1  C08 CBD B1001      -3.225  -3.607  -4.514  1.00 27.96     0.033 A 
ATOM      2  C11 CBD B1001      -3.642  -2.316  -4.211  1.00 27.96     0.129 A 
ATOM      3  C12 CBD B1001      -3.526  -4.147  -5.773  1.00 27.96     0.129 A 
ATOM      4  C15 CBD B1001      -4.712  -2.110  -6.353  1.00 27.96    -0.018 A 
ATOM      5  C16 CBD B1001      -4.395  -1.571  -5.112  1.00 27.96     0.023 A 
ATOM      6  C17 CBD B1001      -4.281  -3.397  -6.683  1.00 27.96     0.023 A 
ATOM      7  O01 CBD B1001      -3.316  -1.787  -2.954  1.00 27.96    -0.190 OA
ATOM      8  O02 CBD B1001      -3.114  -5.435  -6.147  1.00 27.96    -0.190 OA
ENDROOT
BRANCH   1   9
ATOM      9  C04 CBD B1001      -2.373  -4.279  -3.411  1.00 27.96     0.051 C 
ATOM     10  C07 CBD B1001      -0.960  -4.239  -3.950  1.00 27.96    -0.030 C 
ATOM     11  C09 CBD B1001      -0.021  -4.413  -3.053  1.00 27.96    -0.048 C 
ATOM     12  C06 CBD B1001      -0.160  -5.528  -2.015  1.00 27.96     0.022 C 
ATOM     13  C13 CBD B1001       0.766  -3.170  -2.649  1.00 27.96     0.026 C 
ATOM     14  C05 CBD B1001      -1.602  -6.045  -1.826  1.00 27.96     0.009 C 
ATOM     15  C03 CBD B1001      -2.582  -5.733  -2.971  1.00 27.96     0.027 C 
BRANCH  15  16
ATOM     16  C10 CBD B1001      -3.979  -6.028  -2.412  1.00 27.96    -0.044 C 
ATOM     17  C19 CBD B1001      -4.282  -5.729  -1.147  1.00 27.96    -0.009 C 
ATOM     18  C14 CBD B1001      -5.023  -6.713  -3.316  1.00 27.96     0.026 C 
ENDBRANCH  15  16
ENDBRANCH   1   9
BRANCH   4  19
ATOM     19  C18 CBD B1001      -5.550  -1.264  -7.343  1.00 27.96     0.026 C 
BRANCH  19  20
ATOM     20  C20 CBD B1001      -6.921  -0.939  -6.693  1.00 27.96     0.005 C 
BRANCH  20  21
ATOM     21  C21 CBD B1001      -7.776  -2.233  -6.573  1.00 27.96     0.000 C 
BRANCH  21  22
ATOM     22  C22 CBD B1001      -8.145  -2.465  -5.088  1.00 27.96     0.000 C 
ATOM     23  C23 CBD B1001      -7.444  -3.750  -4.584  1.00 27.96     0.000 C 
ENDBRANCH  21  22
ENDBRANCH  20  21
ENDBRANCH  19  20
ENDBRANCH   4  19
TORSDOF 6
ENDMDL
