MODEL 1
REMARK VINA RESULT:     0.000      0.000      0.000
REMARK INTER + INTRA:          -1.663
REMARK INTER:                   0.000
REMARK INTRA:                  -1.663
REMARK UNBOUND:                -1.663
REMARK  6 active torsions:
REMARK  status: ('A' for Active; 'I' for Inactive)
REMARK    1  A    between atoms: C03_1  and  C10_8 
REMARK    2  A    between atoms: C04_2  and  C08_6 
REMARK    3  A    between atoms: C15_13  and  C18_16 
REMARK    4  A    between atoms: C18_16  and  C20_18 
REMARK    5  A    between atoms: C20_18  and  C21_19 
REMARK    6  A    between atoms: C21_19  and  C22_20 
ROOT
ATOM      1  C08 CBD B1001      -1.147   3.039  -0.033  1.00 27.96     0.033 A 
ATOM      2  C11 CBD B1001      -2.170   2.921   0.900  1.00 27.96     0.129 A 
ATOM      3  C12 CBD B1001       0.124   2.532   0.276  1.00 27.96     0.129 A 
ATOM      4  C15 CBD B1001      -0.682   1.872   2.469  1.00 27.96    -0.018 A 
ATOM      5  C16 CBD B1001      -1.945   2.358   2.151  1.00 27.96     0.023 A 
ATOM      6  C17 CBD B1001       0.352   1.962   1.535  1.00 27.96     0.023 A 
ATOM      7  O01 CBD B1001      -3.439   3.417   0.565  1.00 27.96    -0.190 OA
ATOM      8  O02 CBD B1001       1.192   2.601  -0.631  1.00 27.96    -0.190 OA
ENDROOT
BRANCH   1   9
ATOM      9  C04 CBD B1001      -1.579   3.662  -1.382  1.00 27.96     0.051 C 
ATOM     10  C07 CBD B1001      -1.630   2.490  -2.338  1.00 27.96    -0.030 C 
ATOM     11  C09 CBD B1001      -2.317   2.701  -3.434  1.00 27.96    -0.048 C 
ATOM     12  C06 CBD B1001      -2.130   4.008  -4.207  1.00 27.96     0.022 C 
ATOM     13  C13 CBD B1001      -3.681   2.023  -3.518  1.00 27.96     0.026 C 
ATOM     14  C05 CBD B1001      -1.501   5.151  -3.382  1.00 27.96     0.009 C 
ATOM     15  C03 CBD B1001      -0.747   4.724  -2.110  1.00 27.96     0.027 C 
BRANCH  15  16
ATOM     16  C10 CBD B1001      -0.527   6.012  -1.308  1.00 27.96    -0.044 C 
ATOM     17  C19 CBD B1001      -1.470   6.955  -1.264  1.00 27.96    -0.009 C 
ATOM     18  C14 CBD B1001       0.815   6.227  -0.582  1.00 27.96     0.026 C 
ENDBRANCH  15  16
ENDBRANCH   1   9
BRANCH   4  19
ATOM     19  C18 CBD B1001      -0.452   1.247   3.867  1.00 27.96     0.026 C 
BRANCH  19  20
ATOM     20  C20 CBD B1001      -0.748   2.317   4.951  1.00 27.96     0.005 C 
BRANCH  20  21
ATOM     21  C21 CBD B1001       0.339   3.430   4.915  1.00 27.96     0.000 C 
BRANCH  21  22
ATOM     22  C22 CBD B1001      -0.341   4.798   4.667  1.00 27.96     0.000 C 
ATOM     23  C23 CBD B1001       0.093   5.339   3.283  1.00 27.96     0.000 C 
ENDBRANCH  21  22
ENDBRANCH  20  21
ENDBRANCH  19  20
ENDBRANCH   4  19
TORSDOF 6
ENDMDL
MODEL 2
REMARK VINA RESULT:     0.000      5.972      8.391
REMARK INTER + INTRA:          -1.663
REMARK INTER:                   0.000
REMARK INTRA:                  -1.663
REMARK UNBOUND:                -1.663
REMARK  6 active torsions:
REMARK  status: ('A' for Active; 'I' for Inactive)
REMARK    1  A    between atoms: C03_1  and  C10_8 
REMARK    2  A    between atoms: C04_2  and  C08_6 
REMARK    3  A    between atoms: C15_13  and  C18_16 
REMARK    4  A    between atoms: C18_16  and  C20_18 
REMARK    5  A    between atoms: C20_18  and  C21_19 
REMARK    6  A    between atoms: C21_19  and  C22_20 
ROOT
ATOM      1  C08 CBD B1001       2.465  -1.911   0.230  1.00 27.96     0.033 A 
ATOM      2  C11 CBD B1001       3.613  -1.293  -0.251  1.00 27.96     0.129 A 
ATOM      3  C12 CBD B1001       2.574  -3.149   0.879  1.00 27.96     0.129 A 
ATOM      4  C15 CBD B1001       4.968  -3.137   0.481  1.00 27.96    -0.018 A 
ATOM      5  C16 CBD B1001       4.859  -1.901  -0.145  1.00 27.96     0.023 A 
ATOM      6  C17 CBD B1001       3.828  -3.762   0.990  1.00 27.96     0.023 A 
ATOM      7  O01 CBD B1001       3.486  -0.046  -0.881  1.00 27.96    -0.190 OA
ATOM      8  O02 CBD B1001       1.456  -3.814   1.405  1.00 27.96    -0.190 OA
ENDROOT
BRANCH   1   9
ATOM      9  C04 CBD B1001       1.170  -1.082   0.055  1.00 27.96     0.051 C 
ATOM     10  C07 CBD B1001       0.863  -0.567   1.445  1.00 27.96    -0.030 C 
ATOM     11  C09 CBD B1001       0.035   0.447   1.488  1.00 27.96    -0.048 C 
ATOM     12  C06 CBD B1001      -1.238   0.424   0.638  1.00 27.96     0.022 C 
ATOM     13  C13 CBD B1001       0.649   1.809   1.799  1.00 27.96     0.026 C 
ATOM     14  C05 CBD B1001      -1.199  -0.574  -0.539  1.00 27.96     0.009 C 
ATOM     15  C03 CBD B1001      -0.148  -1.693  -0.435  1.00 27.96     0.027 C 
BRANCH  15  16
ATOM     16  C10 CBD B1001      -0.071  -2.319  -1.833  1.00 27.96    -0.044 C 
ATOM     17  C19 CBD B1001      -0.159  -1.557  -2.924  1.00 27.96    -0.009 C 
ATOM     18  C14 CBD B1001       0.068  -3.848  -1.966  1.00 27.96     0.026 C 
ENDBRANCH  15  16
ENDBRANCH   1   9
BRANCH   4  19
ATOM     19  C18 CBD B1001       6.365  -3.797   0.591  1.00 27.96     0.026 C 
BRANCH  19  20
ATOM     20  C20 CBD B1001       6.927  -4.027  -0.838  1.00 27.96     0.005 C 
BRANCH  20  21
ATOM     21  C21 CBD B1001       6.106  -5.130  -1.564  1.00 27.96     0.000 C 
BRANCH  21  22
ATOM     22  C22 CBD B1001       5.511  -4.548  -2.868  1.00 27.96     0.000 C 
ATOM     23  C23 CBD B1001       3.968  -4.500  -2.748  1.00 27.96     0.000 C 
ENDBRANCH  21  22
ENDBRANCH  20  21
ENDBRANCH  19  20
ENDBRANCH   4  19
TORSDOF 6
ENDMDL
MODEL 3
REMARK VINA RESULT:     0.000      2.774      5.071
REMARK INTER + INTRA:          -1.663
REMARK INTER:                   0.000
REMARK INTRA:                  -1.663
REMARK UNBOUND:                -1.663
REMARK  6 active torsions:
REMARK  status: ('A' for Active; 'I' for Inactive)
REMARK    1  A    between atoms: C03_1  and  C10_8 
REMARK    2  A    between atoms: C04_2  and  C08_6 
REMARK    3  A    between atoms: C15_13  and  C18_16 
REMARK    4  A    between atoms: C18_16  and  C20_18 
REMARK    5  A    between atoms: C20_18  and  C21_19 
REMARK    6  A    between atoms: C21_19  and  C22_20 
ROOT
ATOM      1  C08 CBD B1001      -0.598   5.727   0.209  1.00 27.96     0.033 A 
ATOM      2  C11 CBD B1001      -0.765   6.945   0.858  1.00 27.96     0.129 A 
ATOM      3  C12 CBD B1001       0.696   5.213   0.041  1.00 27.96     0.129 A 
ATOM      4  C15 CBD B1001       1.613   7.187   1.113  1.00 27.96    -0.018 A 
ATOM      5  C16 CBD B1001       0.329   7.685   1.296  1.00 27.96     0.023 A 
ATOM      6  C17 CBD B1001       1.798   5.955   0.484  1.00 27.96     0.023 A 
ATOM      7  O01 CBD B1001      -2.067   7.435   1.034  1.00 27.96    -0.190 OA
ATOM      8  O02 CBD B1001       0.929   3.979  -0.586  1.00 27.96    -0.190 OA
ENDROOT
BRANCH   1   9
ATOM      9  C04 CBD B1001      -1.920   5.026  -0.184  1.00 27.96     0.051 C 
ATOM     10  C07 CBD B1001      -2.059   3.899   0.816  1.00 27.96    -0.030 C 
ATOM     11  C09 CBD B1001      -3.265   3.397   0.918  1.00 27.96    -0.048 C 
ATOM     12  C06 CBD B1001      -4.067   3.084  -0.348  1.00 27.96     0.022 C 
ATOM     13  C13 CBD B1001      -4.048   3.769   2.173  1.00 27.96     0.026 C 
ATOM     14  C05 CBD B1001      -3.571   3.818  -1.612  1.00 27.96     0.009 C 
ATOM     15  C03 CBD B1001      -2.133   4.364  -1.551  1.00 27.96     0.027 C 
BRANCH  15  16
ATOM     16  C10 CBD B1001      -2.003   5.321  -2.742  1.00 27.96    -0.044 C 
ATOM     17  C19 CBD B1001      -3.022   6.106  -3.097  1.00 27.96    -0.009 C 
ATOM     18  C14 CBD B1001      -0.693   5.339  -3.553  1.00 27.96     0.026 C 
ENDBRANCH  15  16
ENDBRANCH   1   9
BRANCH   4  19
ATOM     19  C18 CBD B1001       2.817   8.026   1.610  1.00 27.96     0.026 C 
BRANCH  19  20
ATOM     20  C20 CBD B1001       2.815   9.392   0.875  1.00 27.96     0.005 C 
BRANCH  20  21
ATOM     21  C21 CBD B1001       3.161   9.192  -0.628  1.00 27.96     0.000 C 
BRANCH  21  22
ATOM     22  C22 CBD B1001       2.006   9.745  -1.496  1.00 27.96     0.000 C 
ATOM     23  C23 CBD B1001       1.326   8.573  -2.245  1.00 27.96     0.000 C 
ENDBRANCH  21  22
ENDBRANCH  20  21
ENDBRANCH  19  20
ENDBRANCH   4  19
TORSDOF 6
ENDMDL
MODEL 4
REMARK VINA RESULT:     0.000      3.117      5.873
REMARK INTER + INTRA:          -1.663
REMARK INTER:                   0.000
REMARK INTRA:                  -1.663
REMARK UNBOUND:                -1.663
REMARK  6 active torsions:
REMARK  status: ('A' for Active; 'I' for Inactive)
REMARK    1  A    between atoms: C03_1  and  C10_8 
REMARK    2  A    between atoms: C04_2  and  C08_6 
REMARK    3  A    between atoms: C15_13  and  C18_16 
REMARK    4  A    between atoms: C18_16  and  C20_18 
REMARK    5  A    between atoms: C20_18  and  C21_19 
REMARK    6  A    between atoms: C21_19  and  C22_20 
ROOT
ATOM      1  C08 CBD B1001       2.094   5.459  -0.328  1.00 27.96     0.033 A 
ATOM      2  C11 CBD B1001       3.315   4.841  -0.575  1.00 27.96     0.129 A 
ATOM      3  C12 CBD B1001       1.157   4.821   0.496  1.00 27.96     0.129 A 
ATOM      4  C15 CBD B1001       2.667   2.937   0.739  1.00 27.96    -0.018 A 
ATOM      5  C16 CBD B1001       3.601   3.581  -0.062  1.00 27.96     0.023 A 
ATOM      6  C17 CBD B1001       1.445   3.553   1.016  1.00 27.96     0.023 A 
ATOM      7  O01 CBD B1001       4.247   5.503  -1.387  1.00 27.96    -0.190 OA
ATOM      8  O02 CBD B1001      -0.083   5.403   0.800  1.00 27.96    -0.190 OA
ENDROOT
BRANCH   1   9
ATOM      9  C04 CBD B1001       1.955   6.869  -0.951  1.00 27.96     0.051 C 
ATOM     10  C07 CBD B1001       2.096   7.814   0.223  1.00 27.96    -0.030 C 
ATOM     11  C09 CBD B1001       2.377   9.053  -0.096  1.00 27.96    -0.048 C 
ATOM     12  C06 CBD B1001       1.617   9.735  -1.236  1.00 27.96     0.022 C 
ATOM     13  C13 CBD B1001       3.808   9.511   0.168  1.00 27.96     0.026 C 
ATOM     14  C05 CBD B1001       0.920   8.760  -2.208  1.00 27.96     0.009 C 
ATOM     15  C03 CBD B1001       0.686   7.334  -1.676  1.00 27.96     0.027 C 
BRANCH  15  16
ATOM     16  C10 CBD B1001       0.315   6.491  -2.902  1.00 27.96    -0.044 C 
ATOM     17  C19 CBD B1001       0.916   6.696  -4.075  1.00 27.96    -0.009 C 
ATOM     18  C14 CBD B1001      -0.791   5.426  -2.775  1.00 27.96     0.026 C 
ENDBRANCH  15  16
ENDBRANCH   1   9
BRANCH   4  19
ATOM     19  C18 CBD B1001       3.006   1.534   1.302  1.00 27.96     0.026 C 
BRANCH  19  20
ATOM     20  C20 CBD B1001       3.247   0.561   0.118  1.00 27.96     0.005 C 
BRANCH  20  21
ATOM     21  C21 CBD B1001       1.912   0.291  -0.633  1.00 27.96     0.000 C 
BRANCH  21  22
ATOM     22  C22 CBD B1001       2.069   0.702  -2.117  1.00 27.96     0.000 C 
ATOM     23  C23 CBD B1001       1.149   1.911  -2.411  1.00 27.96     0.000 C 
ENDBRANCH  21  22
ENDBRANCH  20  21
ENDBRANCH  19  20
ENDBRANCH   4  19
TORSDOF 6
ENDMDL
MODEL 5
REMARK VINA RESULT:     0.000      5.560      7.586
REMARK INTER + INTRA:          -1.663
REMARK INTER:                   0.000
REMARK INTRA:                  -1.663
REMARK UNBOUND:                -1.663
REMARK  6 active torsions:
REMARK  status: ('A' for Active; 'I' for Inactive)
REMARK    1  A    between atoms: C03_1  and  C10_8 
REMARK    2  A    between atoms: C04_2  and  C08_6 
REMARK    3  A    between atoms: C15_13  and  C18_16 
REMARK    4  A    between atoms: C18_16  and  C20_18 
REMARK    5  A    between atoms: C20_18  and  C21_19 
REMARK    6  A    between atoms: C21_19  and  C22_20 
ROOT
ATOM      1  C08 CBD B1001       4.417   6.632  -2.187  1.00 27.96     0.033 A 
ATOM      2  C11 CBD B1001       4.913   7.634  -1.361  1.00 27.96     0.129 A 
ATOM      3  C12 CBD B1001       3.435   5.760  -1.693  1.00 27.96     0.129 A 
ATOM      4  C15 CBD B1001       3.533   6.881   0.457  1.00 27.96    -0.018 A 
ATOM      5  C16 CBD B1001       4.492   7.755  -0.041  1.00 27.96     0.023 A 
ATOM      6  C17 CBD B1001       3.008   5.883  -0.365  1.00 27.96     0.023 A 
ATOM      7  O01 CBD B1001       5.881   8.507  -1.878  1.00 27.96    -0.190 OA
ATOM      8  O02 CBD B1001       2.879   4.743  -2.484  1.00 27.96    -0.190 OA
ENDROOT
BRANCH   1   9
ATOM      9  C04 CBD B1001       4.971   6.661  -3.631  1.00 27.96     0.051 C 
ATOM     10  C07 CBD B1001       3.831   7.210  -4.461  1.00 27.96    -0.030 C 
ATOM     11  C09 CBD B1001       4.175   7.667  -5.639  1.00 27.96    -0.048 C 
ATOM     12  C06 CBD B1001       5.128   6.856  -6.519  1.00 27.96     0.022 C 
ATOM     13  C13 CBD B1001       4.193   9.185  -5.796  1.00 27.96     0.026 C 
ATOM     14  C05 CBD B1001       5.961   5.804  -5.755  1.00 27.96     0.009 C 
ATOM     15  C03 CBD B1001       5.420   5.396  -4.373  1.00 27.96     0.027 C 
BRANCH  15  16
ATOM     16  C10 CBD B1001       6.564   4.637  -3.690  1.00 27.96    -0.044 C 
ATOM     17  C19 CBD B1001       7.829   5.031  -3.844  1.00 27.96    -0.009 C 
ATOM     18  C14 CBD B1001       6.241   3.385  -2.851  1.00 27.96     0.026 C 
ENDBRANCH  15  16
ENDBRANCH   1   9
BRANCH   4  19
ATOM     19  C18 CBD B1001       3.076   7.034   1.930  1.00 27.96     0.026 C 
BRANCH  19  20
ATOM     20  C20 CBD B1001       4.304   6.846   2.860  1.00 27.96     0.005 C 
BRANCH  20  21
ATOM     21  C21 CBD B1001       4.781   5.366   2.824  1.00 27.96     0.000 C 
BRANCH  21  22
ATOM     22  C22 CBD B1001       6.258   5.316   2.365  1.00 27.96     0.000 C 
ATOM     23  C23 CBD B1001       6.340   4.617   0.986  1.00 27.96     0.000 C 
ENDBRANCH  21  22
ENDBRANCH  20  21
ENDBRANCH  19  20
ENDBRANCH   4  19
TORSDOF 6
ENDMDL
MODEL 6
REMARK VINA RESULT:     0.001      6.810     10.470
REMARK INTER + INTRA:          -1.663
REMARK INTER:                   0.000
REMARK INTRA:                  -1.663
REMARK UNBOUND:                -1.663
REMARK  6 active torsions:
REMARK  status: ('A' for Active; 'I' for Inactive)
REMARK    1  A    between atoms: C03_1  and  C10_8 
REMARK    2  A    between atoms: C04_2  and  C08_6 
REMARK    3  A    between atoms: C15_13  and  C18_16 
REMARK    4  A    between atoms: C18_16  and  C20_18 
REMARK    5  A    between atoms: C20_18  and  C21_19 
REMARK    6  A    between atoms: C21_19  and  C22_20 
ROOT
ATOM      1  C08 CBD B1001       0.821  -3.182   5.352  1.00 27.96     0.033 A 
ATOM      2  C11 CBD B1001       1.112  -2.081   6.149  1.00 27.96     0.129 A 
ATOM      3  C12 CBD B1001      -0.188  -3.080   4.383  1.00 27.96     0.129 A 
ATOM      4  C15 CBD B1001      -0.625  -0.800   5.092  1.00 27.96    -0.018 A 
ATOM      5  C16 CBD B1001       0.388  -0.899   6.037  1.00 27.96     0.023 A 
ATOM      6  C17 CBD B1001      -0.916  -1.890   4.268  1.00 27.96     0.023 A 
ATOM      7  O01 CBD B1001       2.136  -2.196   7.099  1.00 27.96    -0.190 OA
ATOM      8  O02 CBD B1001      -0.513  -4.149   3.535  1.00 27.96    -0.190 OA
ENDROOT
BRANCH   1   9
ATOM      9  C04 CBD B1001       1.743  -4.402   5.588  1.00 27.96     0.051 C 
ATOM     10  C07 CBD B1001       2.665  -4.415   4.388  1.00 27.96    -0.030 C 
ATOM     11  C09 CBD B1001       3.757  -5.123   4.537  1.00 27.96    -0.048 C 
ATOM     12  C06 CBD B1001       3.677  -6.519   5.157  1.00 27.96     0.022 C 
ATOM     13  C13 CBD B1001       5.050  -4.338   4.736  1.00 27.96     0.026 C 
ATOM     14  C05 CBD B1001       2.393  -6.780   5.975  1.00 27.96     0.009 C 
ATOM     15  C03 CBD B1001       1.211  -5.837   5.686  1.00 27.96     0.027 C 
BRANCH  15  16
ATOM     16  C10 CBD B1001       0.214  -6.064   6.828  1.00 27.96    -0.044 C 
ATOM     17  C19 CBD B1001       0.643  -6.266   8.075  1.00 27.96    -0.009 C 
ATOM     18  C14 CBD B1001      -1.295  -6.095   6.515  1.00 27.96     0.026 C 
ENDBRANCH  15  16
ENDBRANCH   1   9
BRANCH   4  19
ATOM     19  C18 CBD B1001      -1.419   0.525   4.982  1.00 27.96     0.026 C 
BRANCH  19  20
ATOM     20  C20 CBD B1001      -2.116   0.808   6.340  1.00 27.96     0.005 C 
BRANCH  20  21
ATOM     21  C21 CBD B1001      -3.252  -0.226   6.583  1.00 27.96     0.000 C 
BRANCH  21  22
ATOM     22  C22 CBD B1001      -2.980  -0.981   7.906  1.00 27.96     0.000 C 
ATOM     23  C23 CBD B1001      -2.685  -2.468   7.594  1.00 27.96     0.000 C 
ENDBRANCH  21  22
ENDBRANCH  20  21
ENDBRANCH  19  20
ENDBRANCH   4  19
TORSDOF 6
ENDMDL
MODEL 7
REMARK VINA RESULT:     0.001      5.728      9.182
REMARK INTER + INTRA:          -1.663
REMARK INTER:                   0.000
REMARK INTRA:                  -1.663
REMARK UNBOUND:                -1.663
REMARK  6 active torsions:
REMARK  status: ('A' for Active; 'I' for Inactive)
REMARK    1  A    between atoms: C03_1  and  C10_8 
REMARK    2  A    between atoms: C04_2  and  C08_6 
REMARK    3  A    between atoms: C15_13  and  C18_16 
REMARK    4  A    between atoms: C18_16  and  C20_18 
REMARK    5  A    between atoms: C20_18  and  C21_19 
REMARK    6  A    between atoms: C21_19  and  C22_20 
ROOT
ATOM      1  C08 CBD B1001       6.007   2.972   2.084  1.00 27.96     0.033 A 
ATOM      2  C11 CBD B1001       5.733   3.589   0.869  1.00 27.96     0.129 A 
ATOM      3  C12 CBD B1001       6.750   1.783   2.097  1.00 27.96     0.129 A 
ATOM      4  C15 CBD B1001       6.857   1.835  -0.328  1.00 27.96    -0.018 A 
ATOM      5  C16 CBD B1001       6.137   3.023  -0.335  1.00 27.96     0.023 A 
ATOM      6  C17 CBD B1001       7.160   1.213   0.886  1.00 27.96     0.023 A 
ATOM      7  O01 CBD B1001       5.004   4.787   0.877  1.00 27.96    -0.190 OA
ATOM      8  O02 CBD B1001       7.077   1.124   3.291  1.00 27.96    -0.190 OA
ENDROOT
BRANCH   1   9
ATOM      9  C04 CBD B1001       5.510   3.753   3.324  1.00 27.96     0.051 C 
ATOM     10  C07 CBD B1001       6.766   4.349   3.921  1.00 27.96    -0.030 C 
ATOM     11  C09 CBD B1001       6.565   5.341   4.753  1.00 27.96    -0.048 C 
ATOM     12  C06 CBD B1001       5.474   5.228   5.820  1.00 27.96     0.022 C 
ATOM     13  C13 CBD B1001       6.901   6.736   4.235  1.00 27.96     0.026 C 
ATOM     14  C05 CBD B1001       4.403   4.157   5.524  1.00 27.96     0.009 C 
ATOM     15  C03 CBD B1001       4.801   3.075   4.502  1.00 27.96     0.027 C 
BRANCH  15  16
ATOM     16  C10 CBD B1001       3.496   2.362   4.128  1.00 27.96    -0.044 C 
ATOM     17  C19 CBD B1001       2.360   3.048   3.995  1.00 27.96    -0.009 C 
ATOM     18  C14 CBD B1001       3.502   0.832   3.944  1.00 27.96     0.026 C 
ENDBRANCH  15  16
ENDBRANCH   1   9
BRANCH   4  19
ATOM     19  C18 CBD B1001       7.300   1.221  -1.679  1.00 27.96     0.026 C 
BRANCH  19  20
ATOM     20  C20 CBD B1001       6.039   0.913  -2.529  1.00 27.96     0.005 C 
BRANCH  20  21
ATOM     21  C21 CBD B1001       5.237  -0.258  -1.892  1.00 27.96     0.000 C 
BRANCH  21  22
ATOM     22  C22 CBD B1001       3.800   0.220  -1.576  1.00 27.96     0.000 C 
ATOM     23  C23 CBD B1001       3.594   0.237  -0.042  1.00 27.96     0.000 C 
ENDBRANCH  21  22
ENDBRANCH  20  21
ENDBRANCH  19  20
ENDBRANCH   4  19
TORSDOF 6
ENDMDL
MODEL 8
REMARK VINA RESULT:     0.001      6.213      7.764
REMARK INTER + INTRA:          -1.663
REMARK INTER:                   0.000
REMARK INTRA:                  -1.663
REMARK UNBOUND:                -1.663
REMARK  6 active torsions:
REMARK  status: ('A' for Active; 'I' for Inactive)
REMARK    1  A    between atoms: C03_1  and  C10_8 
REMARK    2  A    between atoms: C04_2  and  C08_6 
REMARK    3  A    between atoms: C15_13  and  C18_16 
REMARK    4  A    between atoms: C18_16  and  C20_18 
REMARK    5  A    between atoms: C20_18  and  C21_19 
REMARK    6  A    between atoms: C21_19  and  C22_20 
ROOT
ATOM      1  C08 CBD B1001       3.958  -0.371  -1.867  1.00 27.96     0.033 A 
ATOM      2  C11 CBD B1001       3.638  -1.396  -0.984  1.00 27.96     0.129 A 
ATOM      3  C12 CBD B1001       4.826  -0.634  -2.937  1.00 27.96     0.129 A 
ATOM      4  C15 CBD B1001       5.078  -2.920  -2.159  1.00 27.96    -0.018 A 
ATOM      5  C16 CBD B1001       4.202  -2.660  -1.112  1.00 27.96     0.023 A 
ATOM      6  C17 CBD B1001       5.392  -1.908  -3.069  1.00 27.96     0.023 A 
ATOM      7  O01 CBD B1001       2.755  -1.119   0.069  1.00 27.96    -0.190 OA
ATOM      8  O02 CBD B1001       5.170   0.352  -3.874  1.00 27.96    -0.190 OA
ENDROOT
BRANCH   1   9
ATOM      9  C04 CBD B1001       3.219   0.961  -1.595  1.00 27.96     0.051 C 
ATOM     10  C07 CBD B1001       2.168   1.036  -2.682  1.00 27.96    -0.030 C 
ATOM     11  C09 CBD B1001       1.191   1.877  -2.449  1.00 27.96    -0.048 C 
ATOM     12  C06 CBD B1001       1.506   3.278  -1.919  1.00 27.96     0.022 C 
ATOM     13  C13 CBD B1001      -0.151   1.264  -2.063  1.00 27.96     0.026 C 
ATOM     14  C05 CBD B1001       2.899   3.414  -1.268  1.00 27.96     0.009 C 
ATOM     15  C03 CBD B1001       3.921   2.323  -1.637  1.00 27.96     0.027 C 
BRANCH  15  16
ATOM     16  C10 CBD B1001       5.067   2.473  -0.629  1.00 27.96    -0.044 C 
ATOM     17  C19 CBD B1001       4.815   2.776   0.646  1.00 27.96    -0.009 C 
ATOM     18  C14 CBD B1001       6.521   2.308  -1.112  1.00 27.96     0.026 C 
ENDBRANCH  15  16
ENDBRANCH   1   9
BRANCH   4  19
ATOM     19  C18 CBD B1001       5.694  -4.335  -2.286  1.00 27.96     0.026 C 
BRANCH  19  20
ATOM     20  C20 CBD B1001       6.509  -4.645  -1.002  1.00 27.96     0.005 C 
BRANCH  20  21
ATOM     21  C21 CBD B1001       7.779  -3.748  -0.946  1.00 27.96     0.000 C 
BRANCH  21  22
ATOM     22  C22 CBD B1001       7.756  -2.913   0.357  1.00 27.96     0.000 C 
ATOM     23  C23 CBD B1001       7.599  -1.415  -0.000  1.00 27.96     0.000 C 
ENDBRANCH  21  22
ENDBRANCH  20  21
ENDBRANCH  19  20
ENDBRANCH   4  19
TORSDOF 6
ENDMDL
MODEL 9
REMARK VINA RESULT:     0.001      5.956     10.136
REMARK INTER + INTRA:          -1.662
REMARK INTER:                   0.000
REMARK INTRA:                  -1.662
REMARK UNBOUND:                -1.663
REMARK  6 active torsions:
REMARK  status: ('A' for Active; 'I' for Inactive)
REMARK    1  A    between atoms: C03_1  and  C10_8 
REMARK    2  A    between atoms: C04_2  and  C08_6 
REMARK    3  A    between atoms: C15_13  and  C18_16 
REMARK    4  A    between atoms: C18_16  and  C20_18 
REMARK    5  A    between atoms: C20_18  and  C21_19 
REMARK    6  A    between atoms: C21_19  and  C22_20 
ROOT
ATOM      1  C08 CBD B1001      -1.206  -2.798   5.092  1.00 27.96     0.033 A 
ATOM      2  C11 CBD B1001      -1.397  -3.416   3.861  1.00 27.96     0.129 A 
ATOM      3  C12 CBD B1001      -0.626  -1.523   5.136  1.00 27.96     0.129 A 
ATOM      4  C15 CBD B1001      -0.383  -1.559   2.722  1.00 27.96    -0.018 A 
ATOM      5  C16 CBD B1001      -0.977  -2.814   2.680  1.00 27.96     0.023 A 
ATOM      6  C17 CBD B1001      -0.204  -0.914   3.948  1.00 27.96     0.023 A 
ATOM      7  O01 CBD B1001      -1.996  -4.683   3.835  1.00 27.96    -0.190 OA
ATOM      8  O02 CBD B1001      -0.426  -0.839   6.345  1.00 27.96    -0.190 OA
ENDROOT
BRANCH   1   9
ATOM      9  C04 CBD B1001      -1.760  -3.594   6.298  1.00 27.96     0.051 C 
ATOM     10  C07 CBD B1001      -3.019  -2.853   6.692  1.00 27.96    -0.030 C 
ATOM     11  C09 CBD B1001      -3.850  -3.534   7.441  1.00 27.96    -0.048 C 
ATOM     12  C06 CBD B1001      -3.316  -4.338   8.629  1.00 27.96     0.022 C 
ATOM     13  C13 CBD B1001      -5.114  -4.046   6.757  1.00 27.96     0.026 C 
ATOM     14  C05 CBD B1001      -1.806  -4.650   8.559  1.00 27.96     0.009 C 
ATOM     15  C03 CBD B1001      -0.981  -3.763   7.609  1.00 27.96     0.027 C 
BRANCH  15  16
ATOM     16  C10 CBD B1001       0.370  -4.470   7.452  1.00 27.96    -0.044 C 
ATOM     17  C19 CBD B1001       0.437  -5.800   7.382  1.00 27.96    -0.009 C 
ATOM     18  C14 CBD B1001       1.661  -3.627   7.417  1.00 27.96     0.026 C 
ENDBRANCH  15  16
ENDBRANCH   1   9
BRANCH   4  19
ATOM     19  C18 CBD B1001       0.077  -0.905   1.395  1.00 27.96     0.026 C 
BRANCH  19  20
ATOM     20  C20 CBD B1001       1.134  -1.821   0.723  1.00 27.96     0.005 C 
BRANCH  20  21
ATOM     21  C21 CBD B1001       2.449  -1.818   1.553  1.00 27.96     0.000 C 
BRANCH  21  22
ATOM     22  C22 CBD B1001       2.786  -3.266   1.981  1.00 27.96     0.000 C 
ATOM     23  C23 CBD B1001       2.669  -3.383   3.520  1.00 27.96     0.000 C 
ENDBRANCH  21  22
ENDBRANCH  20  21
ENDBRANCH  19  20
ENDBRANCH   4  19
TORSDOF 6
ENDMDL
