MODEL 1
REMARK VINA RESULT:    -0.000      0.000      0.000
REMARK INTER + INTRA:          -1.663
REMARK INTER:                   0.000
REMARK INTRA:                  -1.663
REMARK UNBOUND:                -1.663
REMARK  6 active torsions:
REMARK  status: ('A' for Active; 'I' for Inactive)
REMARK    1  A    between atoms: C03_1  and  C10_8 
REMARK    2  A    between atoms: C04_2  and  C08_6 
REMARK    3  A    between atoms: C15_13  and  C18_16 
REMARK    4  A    between atoms: C18_16  and  C20_18 
REMARK    5  A    between atoms: C20_18  and  C21_19 
REMARK    6  A    between atoms: C21_19  and  C22_20 
ROOT
ATOM      1  C08 CBD B1001       3.568  -0.911   2.608  1.00 27.96     0.033 A 
ATOM      2  C11 CBD B1001       3.349  -1.858   1.614  1.00 27.96     0.129 A 
ATOM      3  C12 CBD B1001       3.771   0.428   2.245  1.00 27.96     0.129 A 
ATOM      4  C15 CBD B1001       3.598  -0.189  -0.096  1.00 27.96    -0.018 A 
ATOM      5  C16 CBD B1001       3.378  -1.511   0.268  1.00 27.96     0.023 A 
ATOM      6  C17 CBD B1001       3.798   0.780   0.890  1.00 27.96     0.023 A 
ATOM      7  O01 CBD B1001       3.129  -3.190   1.997  1.00 27.96    -0.190 OA
ATOM      8  O02 CBD B1001       3.975   1.434   3.201  1.00 27.96    -0.190 OA
ENDROOT
BRANCH   1   9
ATOM      9  C04 CBD B1001       3.470  -1.464   4.050  1.00 27.96     0.051 C 
ATOM     10  C07 CBD B1001       2.141  -0.951   4.560  1.00 27.96    -0.030 C 
ATOM     11  C09 CBD B1001       1.672  -1.580   5.609  1.00 27.96    -0.048 C 
ATOM     12  C06 CBD B1001       2.602  -1.898   6.782  1.00 27.96     0.022 C 
ATOM     13  C13 CBD B1001       0.502  -2.527   5.362  1.00 27.96     0.026 C 
ATOM     14  C05 CBD B1001       4.105  -1.866   6.429  1.00 27.96     0.009 C 
ATOM     15  C03 CBD B1001       4.477  -1.098   5.148  1.00 27.96     0.027 C 
BRANCH  15  16
ATOM     16  C10 CBD B1001       5.924  -1.495   4.834  1.00 27.96    -0.044 C 
ATOM     17  C19 CBD B1001       6.344  -2.746   5.033  1.00 27.96    -0.009 C 
ATOM     18  C14 CBD B1001       6.904  -0.422   4.322  1.00 27.96     0.026 C 
ENDBRANCH  15  16
ENDBRANCH   1   9
BRANCH   4  19
ATOM     19  C18 CBD B1001       3.626   0.177  -1.601  1.00 27.96     0.026 C 
BRANCH  19  20
ATOM     20  C20 CBD B1001       4.767  -0.617  -2.291  1.00 27.96     0.005 C 
BRANCH  20  21
ATOM     21  C21 CBD B1001       6.150  -0.095  -1.809  1.00 27.96     0.000 C 
BRANCH  21  22
ATOM     22  C22 CBD B1001       6.944  -1.263  -1.176  1.00 27.96     0.000 C 
ATOM     23  C23 CBD B1001       7.127  -0.994   0.338  1.00 27.96     0.000 C 
ENDBRANCH  21  22
ENDBRANCH  20  21
ENDBRANCH  19  20
ENDBRANCH   4  19
TORSDOF 6
ENDMDL
MODEL 2
REMARK VINA RESULT:    -0.000      5.978      7.649
REMARK INTER + INTRA:          -1.663
REMARK INTER:                   0.000
REMARK INTRA:                  -1.663
REMARK UNBOUND:                -1.663
REMARK  6 active torsions:
REMARK  status: ('A' for Active; 'I' for Inactive)
REMARK    1  A    between atoms: C03_1  and  C10_8 
REMARK    2  A    between atoms: C04_2  and  C08_6 
REMARK    3  A    between atoms: C15_13  and  C18_16 
REMARK    4  A    between atoms: C18_16  and  C20_18 
REMARK    5  A    between atoms: C20_18  and  C21_19 
REMARK    6  A    between atoms: C21_19  and  C22_20 
ROOT
ATOM      1  C08 CBD B1001      -1.017  -3.636   0.120  1.00 27.96     0.033 A 
ATOM      2  C11 CBD B1001      -2.380  -3.517   0.365  1.00 27.96     0.129 A 
ATOM      3  C12 CBD B1001      -0.567  -3.770  -1.201  1.00 27.96     0.129 A 
ATOM      4  C15 CBD B1001      -2.865  -3.732  -1.979  1.00 27.96    -0.018 A 
ATOM      5  C16 CBD B1001      -3.306  -3.580  -0.671  1.00 27.96     0.023 A 
ATOM      6  C17 CBD B1001      -1.498  -3.831  -2.245  1.00 27.96     0.023 A 
ATOM      7  O01 CBD B1001      -2.810  -3.364   1.690  1.00 27.96    -0.190 OA
ATOM      8  O02 CBD B1001       0.797  -3.873  -1.514  1.00 27.96    -0.190 OA
ENDROOT
BRANCH   1   9
ATOM      9  C04 CBD B1001      -0.128  -3.514   1.381  1.00 27.96     0.051 C 
ATOM     10  C07 CBD B1001       0.489  -2.136   1.275  1.00 27.96    -0.030 C 
ATOM     11  C09 CBD B1001       0.983  -1.664   2.393  1.00 27.96    -0.048 C 
ATOM     12  C06 CBD B1001       1.845  -2.564   3.281  1.00 27.96     0.022 C 
ATOM     13  C13 CBD B1001       0.176  -0.565   3.078  1.00 27.96     0.026 C 
ATOM     14  C05 CBD B1001       1.671  -4.075   3.016  1.00 27.96     0.009 C 
ATOM     15  C03 CBD B1001       1.054  -4.451   1.657  1.00 27.96     0.027 C 
BRANCH  15  16
ATOM     16  C10 CBD B1001       0.672  -5.931   1.773  1.00 27.96    -0.044 C 
ATOM     17  C19 CBD B1001       0.176  -6.418   2.911  1.00 27.96    -0.009 C 
ATOM     18  C14 CBD B1001       0.904  -6.865   0.568  1.00 27.96     0.026 C 
ENDBRANCH  15  16
ENDBRANCH   1   9
BRANCH   4  19
ATOM     19  C18 CBD B1001      -3.913  -3.799  -3.118  1.00 27.96     0.026 C 
BRANCH  19  20
ATOM     20  C20 CBD B1001      -4.847  -5.014  -2.872  1.00 27.96     0.005 C 
BRANCH  20  21
ATOM     21  C21 CBD B1001      -4.063  -6.341  -3.079  1.00 27.96     0.000 C 
BRANCH  21  22
ATOM     22  C22 CBD B1001      -4.127  -7.179  -1.780  1.00 27.96     0.000 C 
ATOM     23  C23 CBD B1001      -2.708  -7.282  -1.170  1.00 27.96     0.000 C 
ENDBRANCH  21  22
ENDBRANCH  20  21
ENDBRANCH  19  20
ENDBRANCH   4  19
TORSDOF 6
ENDMDL
MODEL 3
REMARK VINA RESULT:    -0.000      7.462     10.490
REMARK INTER + INTRA:          -1.663
REMARK INTER:                   0.000
REMARK INTRA:                  -1.663
REMARK UNBOUND:                -1.663
REMARK  6 active torsions:
REMARK  status: ('A' for Active; 'I' for Inactive)
REMARK    1  A    between atoms: C03_1  and  C10_8 
REMARK    2  A    between atoms: C04_2  and  C08_6 
REMARK    3  A    between atoms: C15_13  and  C18_16 
REMARK    4  A    between atoms: C18_16  and  C20_18 
REMARK    5  A    between atoms: C20_18  and  C21_19 
REMARK    6  A    between atoms: C21_19  and  C22_20 
ROOT
ATOM      1  C08 CBD B1001      -4.569  -3.975   1.019  1.00 27.96     0.033 A 
ATOM      2  C11 CBD B1001      -3.783  -2.829   0.982  1.00 27.96     0.129 A 
ATOM      3  C12 CBD B1001      -4.807  -4.604   2.249  1.00 27.96     0.129 A 
ATOM      4  C15 CBD B1001      -3.406  -2.958   3.352  1.00 27.96    -0.018 A 
ATOM      5  C16 CBD B1001      -3.188  -2.326   2.134  1.00 27.96     0.023 A 
ATOM      6  C17 CBD B1001      -4.211  -4.097   3.410  1.00 27.96     0.023 A 
ATOM      7  O01 CBD B1001      -3.572  -2.203  -0.254  1.00 27.96    -0.190 OA
ATOM      8  O02 CBD B1001      -5.609  -5.751   2.354  1.00 27.96    -0.190 OA
ENDROOT
BRANCH   1   9
ATOM      9  C04 CBD B1001      -5.176  -4.377  -0.347  1.00 27.96     0.051 C 
ATOM     10  C07 CBD B1001      -6.634  -3.986  -0.241  1.00 27.96    -0.030 C 
ATOM     11  C09 CBD B1001      -7.265  -3.890  -1.385  1.00 27.96    -0.048 C 
ATOM     12  C06 CBD B1001      -7.084  -4.978  -2.445  1.00 27.96     0.022 C 
ATOM     13  C13 CBD B1001      -7.569  -2.476  -1.872  1.00 27.96     0.026 C 
ATOM     14  C05 CBD B1001      -5.821  -5.846  -2.258  1.00 27.96     0.009 C 
ATOM     15  C03 CBD B1001      -5.196  -5.825  -0.852  1.00 27.96     0.027 C 
BRANCH  15  16
ATOM     16  C10 CBD B1001      -3.808  -6.458  -1.008  1.00 27.96    -0.044 C 
ATOM     17  C19 CBD B1001      -3.069  -6.217  -2.093  1.00 27.96    -0.009 C 
ATOM     18  C14 CBD B1001      -3.288  -7.411   0.086  1.00 27.96     0.026 C 
ENDBRANCH  15  16
ENDBRANCH   1   9
BRANCH   4  19
ATOM     19  C18 CBD B1001      -2.736  -2.381   4.624  1.00 27.96     0.026 C 
BRANCH  19  20
ATOM     20  C20 CBD B1001      -1.196  -2.407   4.436  1.00 27.96     0.005 C 
BRANCH  20  21
ATOM     21  C21 CBD B1001      -0.681  -3.875   4.439  1.00 27.96     0.000 C 
BRANCH  21  22
ATOM     22  C22 CBD B1001       0.058  -4.159   3.110  1.00 27.96     0.000 C 
ATOM     23  C23 CBD B1001      -0.740  -5.207   2.297  1.00 27.96     0.000 C 
ENDBRANCH  21  22
ENDBRANCH  20  21
ENDBRANCH  19  20
ENDBRANCH   4  19
TORSDOF 6
ENDMDL
MODEL 4
REMARK VINA RESULT:    -0.000      7.244     10.589
REMARK INTER + INTRA:          -1.663
REMARK INTER:                   0.000
REMARK INTRA:                  -1.663
REMARK UNBOUND:                -1.663
REMARK  6 active torsions:
REMARK  status: ('A' for Active; 'I' for Inactive)
REMARK    1  A    between atoms: C03_1  and  C10_8 
REMARK    2  A    between atoms: C04_2  and  C08_6 
REMARK    3  A    between atoms: C15_13  and  C18_16 
REMARK    4  A    between atoms: C18_16  and  C20_18 
REMARK    5  A    between atoms: C20_18  and  C21_19 
REMARK    6  A    between atoms: C21_19  and  C22_20 
ROOT
ATOM      1  C08 CBD B1001      -2.145   0.532  -4.065  1.00 27.96     0.033 A 
ATOM      2  C11 CBD B1001      -1.348   1.267  -3.197  1.00 27.96     0.129 A 
ATOM      3  C12 CBD B1001      -1.803  -0.798  -4.350  1.00 27.96     0.129 A 
ATOM      4  C15 CBD B1001       0.162  -0.585  -2.941  1.00 27.96    -0.018 A 
ATOM      5  C16 CBD B1001      -0.191   0.726  -2.646  1.00 27.96     0.023 A 
ATOM      6  C17 CBD B1001      -0.640  -1.346  -3.794  1.00 27.96     0.023 A 
ATOM      7  O01 CBD B1001      -1.715   2.590  -2.910  1.00 27.96    -0.190 OA
ATOM      8  O02 CBD B1001      -2.579  -1.599  -5.201  1.00 27.96    -0.190 OA
ENDROOT
BRANCH   1   9
ATOM      9  C04 CBD B1001      -3.407   1.277  -4.561  1.00 27.96     0.051 C 
ATOM     10  C07 CBD B1001      -4.545   0.645  -3.789  1.00 27.96    -0.030 C 
ATOM     11  C09 CBD B1001      -5.651   1.346  -3.762  1.00 27.96    -0.048 C 
ATOM     12  C06 CBD B1001      -6.176   1.985  -5.049  1.00 27.96     0.022 C 
ATOM     13  C13 CBD B1001      -5.977   2.045  -2.446  1.00 27.96     0.026 C 
ATOM     14  C05 CBD B1001      -5.117   2.138  -6.162  1.00 27.96     0.009 C 
ATOM     15  C03 CBD B1001      -3.866   1.251  -6.023  1.00 27.96     0.027 C 
BRANCH  15  16
ATOM     16  C10 CBD B1001      -2.845   1.820  -7.015  1.00 27.96    -0.044 C 
ATOM     17  C19 CBD B1001      -2.736   3.137  -7.199  1.00 27.96    -0.009 C 
ATOM     18  C14 CBD B1001      -1.967   0.850  -7.831  1.00 27.96     0.026 C 
ENDBRANCH  15  16
ENDBRANCH   1   9
BRANCH   4  19
ATOM     19  C18 CBD B1001       1.453  -1.170  -2.316  1.00 27.96     0.026 C 
BRANCH  19  20
ATOM     20  C20 CBD B1001       2.666  -0.321  -2.782  1.00 27.96     0.005 C 
BRANCH  20  21
ATOM     21  C21 CBD B1001       2.918  -0.537  -4.301  1.00 27.96     0.000 C 
BRANCH  21  22
ATOM     22  C22 CBD B1001       2.837   0.826  -5.030  1.00 27.96     0.000 C 
ATOM     23  C23 CBD B1001       1.609   0.826  -5.973  1.00 27.96     0.000 C 
ENDBRANCH  21  22
ENDBRANCH  20  21
ENDBRANCH  19  20
ENDBRANCH   4  19
TORSDOF 6
ENDMDL
MODEL 5
REMARK VINA RESULT:    -0.000      7.655     11.074
REMARK INTER + INTRA:          -1.663
REMARK INTER:                   0.000
REMARK INTRA:                  -1.663
REMARK UNBOUND:                -1.663
REMARK  6 active torsions:
REMARK  status: ('A' for Active; 'I' for Inactive)
REMARK    1  A    between atoms: C03_1  and  C10_8 
REMARK    2  A    between atoms: C04_2  and  C08_6 
REMARK    3  A    between atoms: C15_13  and  C18_16 
REMARK    4  A    between atoms: C18_16  and  C20_18 
REMARK    5  A    between atoms: C20_18  and  C21_19 
REMARK    6  A    between atoms: C21_19  and  C22_20 
ROOT
ATOM      1  C08 CBD B1001      -4.045  -1.274   0.613  1.00 27.96     0.033 A 
ATOM      2  C11 CBD B1001      -4.245  -2.645   0.719  1.00 27.96     0.129 A 
ATOM      3  C12 CBD B1001      -3.875  -0.514   1.779  1.00 27.96     0.129 A 
ATOM      4  C15 CBD B1001      -4.184  -2.514   3.118  1.00 27.96    -0.018 A 
ATOM      5  C16 CBD B1001      -4.332  -3.267   1.960  1.00 27.96     0.023 A 
ATOM      6  C17 CBD B1001      -3.960  -1.139   3.029  1.00 27.96     0.023 A 
ATOM      7  O01 CBD B1001      -4.394  -3.392  -0.459  1.00 27.96    -0.190 OA
ATOM      8  O02 CBD B1001      -3.648   0.871   1.737  1.00 27.96    -0.190 OA
ENDROOT
BRANCH   1   9
ATOM      9  C04 CBD B1001      -3.944  -0.754  -0.841  1.00 27.96     0.051 C 
ATOM     10  C07 CBD B1001      -2.470  -0.472  -1.039  1.00 27.96    -0.030 C 
ATOM     11  C09 CBD B1001      -2.089  -0.374  -2.289  1.00 27.96    -0.048 C 
ATOM     12  C06 CBD B1001      -2.922   0.449  -3.274  1.00 27.96     0.022 C 
ATOM     13  C13 CBD B1001      -1.299  -1.553  -2.849  1.00 27.96     0.026 C 
ATOM     14  C05 CBD B1001      -4.376   0.703  -2.821  1.00 27.96     0.009 C 
ATOM     15  C03 CBD B1001      -4.652   0.521  -1.317  1.00 27.96     0.027 C 
BRANCH  15  16
ATOM     16  C10 CBD B1001      -6.178   0.484  -1.179  1.00 27.96    -0.044 C 
ATOM     17  C19 CBD B1001      -6.929  -0.131  -2.094  1.00 27.96    -0.009 C 
ATOM     18  C14 CBD B1001      -6.843   1.200   0.013  1.00 27.96     0.026 C 
ENDBRANCH  15  16
ENDBRANCH   1   9
BRANCH   4  19
ATOM     19  C18 CBD B1001      -4.283  -3.226   4.490  1.00 27.96     0.026 C 
BRANCH  19  20
ATOM     20  C20 CBD B1001      -5.686  -3.877   4.619  1.00 27.96     0.005 C 
BRANCH  20  21
ATOM     21  C21 CBD B1001      -6.777  -2.776   4.750  1.00 27.96     0.000 C 
BRANCH  21  22
ATOM     22  C22 CBD B1001      -7.803  -2.937   3.603  1.00 27.96     0.000 C 
ATOM     23  C23 CBD B1001      -7.710  -1.712   2.661  1.00 27.96     0.000 C 
ENDBRANCH  21  22
ENDBRANCH  20  21
ENDBRANCH  19  20
ENDBRANCH   4  19
TORSDOF 6
ENDMDL
MODEL 6
REMARK VINA RESULT:    -0.000      4.830      7.062
REMARK INTER + INTRA:          -1.663
REMARK INTER:                   0.000
REMARK INTRA:                  -1.663
REMARK UNBOUND:                -1.663
REMARK  6 active torsions:
REMARK  status: ('A' for Active; 'I' for Inactive)
REMARK    1  A    between atoms: C03_1  and  C10_8 
REMARK    2  A    between atoms: C04_2  and  C08_6 
REMARK    3  A    between atoms: C15_13  and  C18_16 
REMARK    4  A    between atoms: C18_16  and  C20_18 
REMARK    5  A    between atoms: C20_18  and  C21_19 
REMARK    6  A    between atoms: C21_19  and  C22_20 
ROOT
ATOM      1  C08 CBD B1001       4.061   0.629  -2.472  1.00 27.96     0.033 A 
ATOM      2  C11 CBD B1001       2.997   1.494  -2.698  1.00 27.96     0.129 A 
ATOM      3  C12 CBD B1001       5.306   1.156  -2.103  1.00 27.96     0.129 A 
ATOM      4  C15 CBD B1001       4.396   3.400  -2.267  1.00 27.96    -0.018 A 
ATOM      5  C16 CBD B1001       3.158   2.873  -2.614  1.00 27.96     0.023 A 
ATOM      6  C17 CBD B1001       5.470   2.544  -2.015  1.00 27.96     0.023 A 
ATOM      7  O01 CBD B1001       1.754   0.948  -3.048  1.00 27.96    -0.190 OA
ATOM      8  O02 CBD B1001       6.413   0.334  -1.840  1.00 27.96    -0.190 OA
ENDROOT
BRANCH   1   9
ATOM      9  C04 CBD B1001       3.698  -0.872  -2.578  1.00 27.96     0.051 C 
ATOM     10  C07 CBD B1001       3.662  -1.352  -1.144  1.00 27.96    -0.030 C 
ATOM     11  C09 CBD B1001       3.026  -2.482  -0.955  1.00 27.96    -0.048 C 
ATOM     12  C06 CBD B1001       3.273  -3.659  -1.902  1.00 27.96     0.022 C 
ATOM     13  C13 CBD B1001       1.653  -2.384  -0.298  1.00 27.96     0.026 C 
ATOM     14  C05 CBD B1001       3.890  -3.264  -3.261  1.00 27.96     0.009 C 
ATOM     15  C03 CBD B1001       4.581  -1.890  -3.309  1.00 27.96     0.027 C 
BRANCH  15  16
ATOM     16  C10 CBD B1001       4.794  -1.586  -4.797  1.00 27.96    -0.044 C 
ATOM     17  C19 CBD B1001       3.869  -1.923  -5.698  1.00 27.96    -0.009 C 
ATOM     18  C14 CBD B1001       6.109  -0.922  -5.249  1.00 27.96     0.026 C 
ENDBRANCH  15  16
ENDBRANCH   1   9
BRANCH   4  19
ATOM     19  C18 CBD B1001       4.555   4.938  -2.178  1.00 27.96     0.026 C 
BRANCH  19  20
ATOM     20  C20 CBD B1001       4.237   5.558  -3.564  1.00 27.96     0.005 C 
BRANCH  20  21
ATOM     21  C21 CBD B1001       5.346   5.179  -4.587  1.00 27.96     0.000 C 
BRANCH  21  22
ATOM     22  C22 CBD B1001       4.706   4.433  -5.781  1.00 27.96     0.000 C 
ATOM     23  C23 CBD B1001       5.208   2.968  -5.794  1.00 27.96     0.000 C 
ENDBRANCH  21  22
ENDBRANCH  20  21
ENDBRANCH  19  20
ENDBRANCH   4  19
TORSDOF 6
ENDMDL
MODEL 7
REMARK VINA RESULT:    -0.000      8.604     11.091
REMARK INTER + INTRA:          -1.663
REMARK INTER:                   0.000
REMARK INTRA:                  -1.663
REMARK UNBOUND:                -1.663
REMARK  6 active torsions:
REMARK  status: ('A' for Active; 'I' for Inactive)
REMARK    1  A    between atoms: C03_1  and  C10_8 
REMARK    2  A    between atoms: C04_2  and  C08_6 
REMARK    3  A    between atoms: C15_13  and  C18_16 
REMARK    4  A    between atoms: C18_16  and  C20_18 
REMARK    5  A    between atoms: C20_18  and  C21_19 
REMARK    6  A    between atoms: C21_19  and  C22_20 
ROOT
ATOM      1  C08 CBD B1001      -4.979  -1.638   0.586  1.00 27.96     0.033 A 
ATOM      2  C11 CBD B1001      -6.209  -2.135   0.172  1.00 27.96     0.129 A 
ATOM      3  C12 CBD B1001      -4.030  -2.518   1.126  1.00 27.96     0.129 A 
ATOM      4  C15 CBD B1001      -5.604  -4.350   0.882  1.00 27.96    -0.018 A 
ATOM      5  C16 CBD B1001      -6.534  -3.478   0.330  1.00 27.96     0.023 A 
ATOM      6  C17 CBD B1001      -4.355  -3.871   1.283  1.00 27.96     0.023 A 
ATOM      7  O01 CBD B1001      -7.138  -1.243  -0.383  1.00 27.96    -0.190 OA
ATOM      8  O02 CBD B1001      -2.763  -2.082   1.543  1.00 27.96    -0.190 OA
ENDROOT
BRANCH   1   9
ATOM      9  C04 CBD B1001      -4.773  -0.130   0.309  1.00 27.96     0.051 C 
ATOM     10  C07 CBD B1001      -3.822  -0.090  -0.868  1.00 27.96    -0.030 C 
ATOM     11  C09 CBD B1001      -3.787   1.050  -1.512  1.00 27.96    -0.048 C 
ATOM     12  C06 CBD B1001      -3.714   2.363  -0.728  1.00 27.96     0.022 C 
ATOM     13  C13 CBD B1001      -4.479   1.081  -2.872  1.00 27.96     0.026 C 
ATOM     14  C05 CBD B1001      -4.157   2.249   0.746  1.00 27.96     0.009 C 
ATOM     15  C03 CBD B1001      -4.160   0.827   1.338  1.00 27.96     0.027 C 
BRANCH  15  16
ATOM     16  C10 CBD B1001      -4.944   0.928   2.651  1.00 27.96    -0.044 C 
ATOM     17  C19 CBD B1001      -6.020   1.713   2.742  1.00 27.96    -0.009 C 
ATOM     18  C14 CBD B1001      -4.454   0.142   3.883  1.00 27.96     0.026 C 
ENDBRANCH  15  16
ENDBRANCH   1   9
BRANCH   4  19
ATOM     19  C18 CBD B1001      -5.985  -5.842   1.048  1.00 27.96     0.026 C 
BRANCH  19  20
ATOM     20  C20 CBD B1001      -7.223  -5.944   1.978  1.00 27.96     0.005 C 
BRANCH  20  21
ATOM     21  C21 CBD B1001      -6.835  -5.549   3.432  1.00 27.96     0.000 C 
BRANCH  21  22
ATOM     22  C22 CBD B1001      -7.716  -4.363   3.890  1.00 27.96     0.000 C 
ATOM     23  C23 CBD B1001      -6.825  -3.112   4.085  1.00 27.96     0.000 C 
ENDBRANCH  21  22
ENDBRANCH  20  21
ENDBRANCH  19  20
ENDBRANCH   4  19
TORSDOF 6
ENDMDL
MODEL 8
REMARK VINA RESULT:    -0.000      9.626     12.400
REMARK INTER + INTRA:          -1.663
REMARK INTER:                   0.000
REMARK INTRA:                  -1.663
REMARK UNBOUND:                -1.663
REMARK  6 active torsions:
REMARK  status: ('A' for Active; 'I' for Inactive)
REMARK    1  A    between atoms: C03_1  and  C10_8 
REMARK    2  A    between atoms: C04_2  and  C08_6 
REMARK    3  A    between atoms: C15_13  and  C18_16 
REMARK    4  A    between atoms: C18_16  and  C20_18 
REMARK    5  A    between atoms: C20_18  and  C21_19 
REMARK    6  A    between atoms: C21_19  and  C22_20 
ROOT
ATOM      1  C08 CBD B1001      -4.971   3.666   3.546  1.00 27.96     0.033 A 
ATOM      2  C11 CBD B1001      -5.968   3.282   4.435  1.00 27.96     0.129 A 
ATOM      3  C12 CBD B1001      -4.012   4.604   3.956  1.00 27.96     0.129 A 
ATOM      4  C15 CBD B1001      -5.125   4.791   6.104  1.00 27.96    -0.018 A 
ATOM      5  C16 CBD B1001      -6.062   3.847   5.702  1.00 27.96     0.023 A 
ATOM      6  C17 CBD B1001      -4.103   5.172   5.232  1.00 27.96     0.023 A 
ATOM      7  O01 CBD B1001      -6.907   2.330   4.014  1.00 27.96    -0.190 OA
ATOM      8  O02 CBD B1001      -2.968   5.016   3.113  1.00 27.96    -0.190 OA
ENDROOT
BRANCH   1   9
ATOM      9  C04 CBD B1001      -4.997   2.917   2.193  1.00 27.96     0.051 C 
ATOM     10  C07 CBD B1001      -3.842   1.943   2.279  1.00 27.96    -0.030 C 
ATOM     11  C09 CBD B1001      -3.884   0.957   1.418  1.00 27.96    -0.048 C 
ATOM     12  C06 CBD B1001      -4.228   1.241  -0.045  1.00 27.96     0.022 C 
ATOM     13  C13 CBD B1001      -4.262  -0.412   1.977  1.00 27.96     0.026 C 
ATOM     14  C05 CBD B1001      -4.947   2.587  -0.280  1.00 27.96     0.009 C 
ATOM     15  C03 CBD B1001      -4.809   3.627   0.847  1.00 27.96     0.027 C 
BRANCH  15  16
ATOM     16  C10 CBD B1001      -5.861   4.701   0.548  1.00 27.96    -0.044 C 
ATOM     17  C19 CBD B1001      -7.059   4.365   0.066  1.00 27.96    -0.009 C 
ATOM     18  C14 CBD B1001      -5.507   6.184   0.774  1.00 27.96     0.026 C 
ENDBRANCH  15  16
ENDBRANCH   1   9
BRANCH   4  19
ATOM     19  C18 CBD B1001      -5.245   5.407   7.520  1.00 27.96     0.026 C 
BRANCH  19  20
ATOM     20  C20 CBD B1001      -6.612   6.132   7.638  1.00 27.96     0.005 C 
BRANCH  20  21
ATOM     21  C21 CBD B1001      -6.626   7.399   6.735  1.00 27.96     0.000 C 
BRANCH  21  22
ATOM     22  C22 CBD B1001      -7.791   7.291   5.723  1.00 27.96     0.000 C 
ATOM     23  C23 CBD B1001      -7.213   7.165   4.292  1.00 27.96     0.000 C 
ENDBRANCH  21  22
ENDBRANCH  20  21
ENDBRANCH  19  20
ENDBRANCH   4  19
TORSDOF 6
ENDMDL
MODEL 9
REMARK VINA RESULT:     0.000      3.621      7.549
REMARK INTER + INTRA:          -1.663
REMARK INTER:                   0.000
REMARK INTRA:                  -1.663
REMARK UNBOUND:                -1.663
REMARK  6 active torsions:
REMARK  status: ('A' for Active; 'I' for Inactive)
REMARK    1  A    between atoms: C03_1  and  C10_8 
REMARK    2  A    between atoms: C04_2  and  C08_6 
REMARK    3  A    between atoms: C15_13  and  C18_16 
REMARK    4  A    between atoms: C18_16  and  C20_18 
REMARK    5  A    between atoms: C20_18  and  C21_19 
REMARK    6  A    between atoms: C21_19  and  C22_20 
ROOT
ATOM      1  C08 CBD B1001       2.920   1.588   5.114  1.00 27.96     0.033 A 
ATOM      2  C11 CBD B1001       1.581   1.241   4.980  1.00 27.96     0.129 A 
ATOM      3  C12 CBD B1001       3.756   0.798   5.916  1.00 27.96     0.129 A 
ATOM      4  C15 CBD B1001       1.866  -0.618   6.476  1.00 27.96    -0.018 A 
ATOM      5  C16 CBD B1001       1.045   0.156   5.665  1.00 27.96     0.023 A 
ATOM      6  C17 CBD B1001       3.219  -0.297   6.604  1.00 27.96     0.023 A 
ATOM      7  O01 CBD B1001       0.765   2.033   4.159  1.00 27.96    -0.190 OA
ATOM      8  O02 CBD B1001       5.121   1.083   6.074  1.00 27.96    -0.190 OA
ENDROOT
BRANCH   1   9
ATOM      9  C04 CBD B1001       3.355   2.803   4.259  1.00 27.96     0.051 C 
ATOM     10  C07 CBD B1001       4.149   2.197   3.122  1.00 27.96    -0.030 C 
ATOM     11  C09 CBD B1001       4.308   2.978   2.082  1.00 27.96    -0.048 C 
ATOM     12  C06 CBD B1001       4.705   4.442   2.285  1.00 27.96     0.022 C 
ATOM     13  C13 CBD B1001       3.475   2.639   0.849  1.00 27.96     0.026 C 
ATOM     14  C05 CBD B1001       4.429   4.985   3.703  1.00 27.96     0.009 C 
ATOM     15  C03 CBD B1001       4.246   3.925   4.804  1.00 27.96     0.027 C 
BRANCH  15  16
ATOM     16  C10 CBD B1001       3.655   4.674   6.004  1.00 27.96    -0.044 C 
ATOM     17  C19 CBD B1001       2.753   5.641   5.825  1.00 27.96    -0.009 C 
ATOM     18  C14 CBD B1001       4.143   4.324   7.424  1.00 27.96     0.026 C 
ENDBRANCH  15  16
ENDBRANCH   1   9
BRANCH   4  19
ATOM     19  C18 CBD B1001       1.250  -1.823   7.229  1.00 27.96     0.026 C 
BRANCH  19  20
ATOM     20  C20 CBD B1001       0.134  -1.307   8.176  1.00 27.96     0.005 C 
BRANCH  20  21
ATOM     21  C21 CBD B1001       0.758  -0.485   9.340  1.00 27.96     0.000 C 
BRANCH  21  22
ATOM     22  C22 CBD B1001       0.161   0.942   9.334  1.00 27.96     0.000 C 
ATOM     23  C23 CBD B1001       1.275   1.959   8.985  1.00 27.96     0.000 C 
ENDBRANCH  21  22
ENDBRANCH  20  21
ENDBRANCH  19  20
ENDBRANCH   4  19
TORSDOF 6
ENDMDL
