MODEL 1
REMARK VINA RESULT:    -0.000      0.000      0.000
REMARK INTER + INTRA:          -1.663
REMARK INTER:                   0.000
REMARK INTRA:                  -1.663
REMARK UNBOUND:                -1.663
REMARK  6 active torsions:
REMARK  status: ('A' for Active; 'I' for Inactive)
REMARK    1  A    between atoms: C03_1  and  C10_8 
REMARK    2  A    between atoms: C04_2  and  C08_6 
REMARK    3  A    between atoms: C15_13  and  C18_16 
REMARK    4  A    between atoms: C18_16  and  C20_18 
REMARK    5  A    between atoms: C20_18  and  C21_19 
REMARK    6  A    between atoms: C21_19  and  C22_20 
ROOT
ATOM      1  C08 CBD B1001      -0.613  -3.612  -0.392  1.00 27.96     0.033 A 
ATOM      2  C11 CBD B1001       0.066  -3.386  -1.583  1.00 27.96     0.129 A 
ATOM      3  C12 CBD B1001      -0.169  -2.983   0.780  1.00 27.96     0.129 A 
ATOM      4  C15 CBD B1001       1.660  -1.981  -0.461  1.00 27.96    -0.018 A 
ATOM      5  C16 CBD B1001       1.206  -2.590  -1.624  1.00 27.96     0.023 A 
ATOM      6  C17 CBD B1001       0.976  -2.179   0.740  1.00 27.96     0.023 A 
ATOM      7  O01 CBD B1001      -0.404  -4.009  -2.749  1.00 27.96    -0.190 OA
ATOM      8  O02 CBD B1001      -0.825  -3.153   2.009  1.00 27.96    -0.190 OA
ENDROOT
BRANCH   1   9
ATOM      9  C04 CBD B1001      -1.875  -4.497  -0.533  1.00 27.96     0.051 C 
ATOM     10  C07 CBD B1001      -3.030  -3.526  -0.420  1.00 27.96    -0.030 C 
ATOM     11  C09 CBD B1001      -4.176  -3.975  -0.870  1.00 27.96    -0.048 C 
ATOM     12  C06 CBD B1001      -4.634  -5.388  -0.503  1.00 27.96     0.022 C 
ATOM     13  C13 CBD B1001      -4.647  -3.407  -2.206  1.00 27.96     0.026 C 
ATOM     14  C05 CBD B1001      -3.500  -6.321  -0.025  1.00 27.96     0.009 C 
ATOM     15  C03 CBD B1001      -2.213  -5.623   0.451  1.00 27.96     0.027 C 
BRANCH  15  16
ATOM     16  C10 CBD B1001      -1.152  -6.726   0.536  1.00 27.96    -0.044 C 
ATOM     17  C19 CBD B1001      -1.109  -7.700  -0.375  1.00 27.96    -0.009 C 
ATOM     18  C14 CBD B1001      -0.156  -6.723   1.712  1.00 27.96     0.026 C 
ENDBRANCH  15  16
ENDBRANCH   1   9
BRANCH   4  19
ATOM     19  C18 CBD B1001       2.930  -1.097  -0.528  1.00 27.96     0.026 C 
BRANCH  19  20
ATOM     20  C20 CBD B1001       4.122  -1.965  -1.010  1.00 27.96     0.005 C 
BRANCH  20  21
ATOM     21  C21 CBD B1001       4.508  -2.999   0.086  1.00 27.96     0.000 C 
BRANCH  21  22
ATOM     22  C22 CBD B1001       4.403  -4.427  -0.500  1.00 27.96     0.000 C 
ATOM     23  C23 CBD B1001       3.257  -5.187   0.212  1.00 27.96     0.000 C 
ENDBRANCH  21  22
ENDBRANCH  20  21
ENDBRANCH  19  20
ENDBRANCH   4  19
TORSDOF 6
ENDMDL
MODEL 2
REMARK VINA RESULT:    -0.000      3.609      6.897
REMARK INTER + INTRA:          -1.663
REMARK INTER:                   0.000
REMARK INTRA:                  -1.663
REMARK UNBOUND:                -1.663
REMARK  6 active torsions:
REMARK  status: ('A' for Active; 'I' for Inactive)
REMARK    1  A    between atoms: C03_1  and  C10_8 
REMARK    2  A    between atoms: C04_2  and  C08_6 
REMARK    3  A    between atoms: C15_13  and  C18_16 
REMARK    4  A    between atoms: C18_16  and  C20_18 
REMARK    5  A    between atoms: C20_18  and  C21_19 
REMARK    6  A    between atoms: C21_19  and  C22_20 
ROOT
ATOM      1  C08 CBD B1001      -3.116  -2.183  -1.922  1.00 27.96     0.033 A 
ATOM      2  C11 CBD B1001      -2.067  -3.043  -1.621  1.00 27.96     0.129 A 
ATOM      3  C12 CBD B1001      -4.420  -2.534  -1.544  1.00 27.96     0.129 A 
ATOM      4  C15 CBD B1001      -3.586  -4.627  -0.642  1.00 27.96    -0.018 A 
ATOM      5  C16 CBD B1001      -2.293  -4.267  -1.000  1.00 27.96     0.023 A 
ATOM      6  C17 CBD B1001      -4.650  -3.764  -0.916  1.00 27.96     0.023 A 
ATOM      7  O01 CBD B1001      -0.768  -2.667  -1.990  1.00 27.96    -0.190 OA
ATOM      8  O02 CBD B1001      -5.518  -1.698  -1.799  1.00 27.96    -0.190 OA
ENDROOT
BRANCH   1   9
ATOM      9  C04 CBD B1001      -2.683  -0.853  -2.585  1.00 27.96     0.051 C 
ATOM     10  C07 CBD B1001      -2.820   0.178  -1.486  1.00 27.96    -0.030 C 
ATOM     11  C09 CBD B1001      -2.171   1.296  -1.693  1.00 27.96    -0.048 C 
ATOM     12  C06 CBD B1001      -2.241   1.972  -3.065  1.00 27.96     0.022 C 
ATOM     13  C13 CBD B1001      -0.903   1.504  -0.871  1.00 27.96     0.026 C 
ATOM     14  C05 CBD B1001      -2.686   1.039  -4.211  1.00 27.96     0.009 C 
ATOM     15  C03 CBD B1001      -3.419  -0.246  -3.785  1.00 27.96     0.027 C 
BRANCH  15  16
ATOM     16  C10 CBD B1001      -3.443  -1.141  -5.029  1.00 27.96    -0.044 C 
ATOM     17  C19 CBD B1001      -2.394  -1.189  -5.852  1.00 27.96    -0.009 C 
ATOM     18  C14 CBD B1001      -4.711  -1.958  -5.345  1.00 27.96     0.026 C 
ENDBRANCH  15  16
ENDBRANCH   1   9
BRANCH   4  19
ATOM     19  C18 CBD B1001      -3.817  -5.993   0.050  1.00 27.96     0.026 C 
BRANCH  19  20
ATOM     20  C20 CBD B1001      -3.341  -7.125  -0.900  1.00 27.96     0.005 C 
BRANCH  20  21
ATOM     21  C21 CBD B1001      -4.287  -7.225  -2.130  1.00 27.96     0.000 C 
BRANCH  21  22
ATOM     22  C22 CBD B1001      -3.464  -7.026  -3.425  1.00 27.96     0.000 C 
ATOM     23  C23 CBD B1001      -3.900  -5.708  -4.109  1.00 27.96     0.000 C 
ENDBRANCH  21  22
ENDBRANCH  20  21
ENDBRANCH  19  20
ENDBRANCH   4  19
TORSDOF 6
ENDMDL
MODEL 3
REMARK VINA RESULT:    -0.000      7.751     10.753
REMARK INTER + INTRA:          -1.663
REMARK INTER:                   0.000
REMARK INTRA:                  -1.663
REMARK UNBOUND:                -1.663
REMARK  6 active torsions:
REMARK  status: ('A' for Active; 'I' for Inactive)
REMARK    1  A    between atoms: C03_1  and  C10_8 
REMARK    2  A    between atoms: C04_2  and  C08_6 
REMARK    3  A    between atoms: C15_13  and  C18_16 
REMARK    4  A    between atoms: C18_16  and  C20_18 
REMARK    5  A    between atoms: C20_18  and  C21_19 
REMARK    6  A    between atoms: C21_19  and  C22_20 
ROOT
ATOM      1  C08 CBD B1001       1.810   4.562  -0.271  1.00 27.96     0.033 A 
ATOM      2  C11 CBD B1001       1.409   3.300   0.150  1.00 27.96     0.129 A 
ATOM      3  C12 CBD B1001       1.308   5.695   0.385  1.00 27.96     0.129 A 
ATOM      4  C15 CBD B1001      -0.033   4.264   1.814  1.00 27.96    -0.018 A 
ATOM      5  C16 CBD B1001       0.482   3.143   1.175  1.00 27.96     0.023 A 
ATOM      6  C17 CBD B1001       0.377   5.539   1.418  1.00 27.96     0.023 A 
ATOM      7  O01 CBD B1001       1.936   2.178  -0.505  1.00 27.96    -0.190 OA
ATOM      8  O02 CBD B1001       1.691   6.995   0.020  1.00 27.96    -0.190 OA
ENDROOT
BRANCH   1   9
ATOM      9  C04 CBD B1001       2.868   4.552  -1.400  1.00 27.96     0.051 C 
ATOM     10  C07 CBD B1001       4.160   4.929  -0.708  1.00 27.96    -0.030 C 
ATOM     11  C09 CBD B1001       5.250   4.633  -1.373  1.00 27.96    -0.048 C 
ATOM     12  C06 CBD B1001       5.337   4.951  -2.867  1.00 27.96     0.022 C 
ATOM     13  C13 CBD B1001       6.053   3.442  -0.859  1.00 27.96     0.026 C 
ATOM     14  C05 CBD B1001       3.971   5.163  -3.554  1.00 27.96     0.009 C 
ATOM     15  C03 CBD B1001       2.792   5.482  -2.617  1.00 27.96     0.027 C 
BRANCH  15  16
ATOM     16  C10 CBD B1001       1.529   5.305  -3.468  1.00 27.96    -0.044 C 
ATOM     17  C19 CBD B1001       1.446   4.321  -4.366  1.00 27.96    -0.009 C 
ATOM     18  C14 CBD B1001       0.365   6.302  -3.304  1.00 27.96     0.026 C 
ENDBRANCH  15  16
ENDBRANCH   1   9
BRANCH   4  19
ATOM     19  C18 CBD B1001      -1.063   4.067   2.954  1.00 27.96     0.026 C 
BRANCH  19  20
ATOM     20  C20 CBD B1001      -2.306   3.331   2.387  1.00 27.96     0.005 C 
BRANCH  20  21
ATOM     21  C21 CBD B1001      -3.080   4.262   1.410  1.00 27.96     0.000 C 
BRANCH  21  22
ATOM     22  C22 CBD B1001      -3.169   3.586   0.022  1.00 27.96     0.000 C 
ATOM     23  C23 CBD B1001      -2.345   4.408  -0.999  1.00 27.96     0.000 C 
ENDBRANCH  21  22
ENDBRANCH  20  21
ENDBRANCH  19  20
ENDBRANCH   4  19
TORSDOF 6
ENDMDL
MODEL 4
REMARK VINA RESULT:    -0.000      4.620      8.348
REMARK INTER + INTRA:          -1.663
REMARK INTER:                   0.000
REMARK INTRA:                  -1.663
REMARK UNBOUND:                -1.663
REMARK  6 active torsions:
REMARK  status: ('A' for Active; 'I' for Inactive)
REMARK    1  A    between atoms: C03_1  and  C10_8 
REMARK    2  A    between atoms: C04_2  and  C08_6 
REMARK    3  A    between atoms: C15_13  and  C18_16 
REMARK    4  A    between atoms: C18_16  and  C20_18 
REMARK    5  A    between atoms: C20_18  and  C21_19 
REMARK    6  A    between atoms: C21_19  and  C22_20 
ROOT
ATOM      1  C08 CBD B1001      -1.626   0.596  -0.211  1.00 27.96     0.033 A 
ATOM      2  C11 CBD B1001      -2.697   0.374  -1.069  1.00 27.96     0.129 A 
ATOM      3  C12 CBD B1001      -1.801   0.407   1.168  1.00 27.96     0.129 A 
ATOM      4  C15 CBD B1001      -4.133  -0.150   0.786  1.00 27.96    -0.018 A 
ATOM      5  C16 CBD B1001      -3.950   0.019  -0.581  1.00 27.96     0.023 A 
ATOM      6  C17 CBD B1001      -3.062   0.047   1.660  1.00 27.96     0.023 A 
ATOM      7  O01 CBD B1001      -2.497   0.550  -2.446  1.00 27.96    -0.190 OA
ATOM      8  O02 CBD B1001      -0.754   0.593   2.082  1.00 27.96    -0.190 OA
ENDROOT
BRANCH   1   9
ATOM      9  C04 CBD B1001      -0.300   0.954  -0.923  1.00 27.96     0.051 C 
ATOM     10  C07 CBD B1001       0.534  -0.305  -0.821  1.00 27.96    -0.030 C 
ATOM     11  C09 CBD B1001       1.540  -0.371  -1.658  1.00 27.96    -0.048 C 
ATOM     12  C06 CBD B1001       2.443   0.848  -1.858  1.00 27.96     0.022 C 
ATOM     13  C13 CBD B1001       1.376  -1.326  -2.837  1.00 27.96     0.026 C 
ATOM     14  C05 CBD B1001       1.815   2.185  -1.410  1.00 27.96     0.009 C 
ATOM     15  C03 CBD B1001       0.626   2.076  -0.439  1.00 27.96     0.027 C 
BRANCH  15  16
ATOM     16  C10 CBD B1001      -0.022   3.465  -0.422  1.00 27.96    -0.044 C 
ATOM     17  C19 CBD B1001      -0.112   4.187  -1.540  1.00 27.96    -0.009 C 
ATOM     18  C14 CBD B1001      -0.536   4.040   0.913  1.00 27.96     0.026 C 
ENDBRANCH  15  16
ENDBRANCH   1   9
BRANCH   4  19
ATOM     19  C18 CBD B1001      -5.536  -0.547   1.309  1.00 27.96     0.026 C 
BRANCH  19  20
ATOM     20  C20 CBD B1001      -6.552   0.555   0.908  1.00 27.96     0.005 C 
BRANCH  20  21
ATOM     21  C21 CBD B1001      -6.270   1.860   1.706  1.00 27.96     0.000 C 
BRANCH  21  22
ATOM     22  C22 CBD B1001      -5.998   3.016   0.714  1.00 27.96     0.000 C 
ATOM     23  C23 CBD B1001      -4.526   3.473   0.855  1.00 27.96     0.000 C 
ENDBRANCH  21  22
ENDBRANCH  20  21
ENDBRANCH  19  20
ENDBRANCH   4  19
TORSDOF 6
ENDMDL
MODEL 5
REMARK VINA RESULT:     0.000      5.619      8.522
REMARK INTER + INTRA:          -1.663
REMARK INTER:                   0.000
REMARK INTRA:                  -1.663
REMARK UNBOUND:                -1.663
REMARK  6 active torsions:
REMARK  status: ('A' for Active; 'I' for Inactive)
REMARK    1  A    between atoms: C03_1  and  C10_8 
REMARK    2  A    between atoms: C04_2  and  C08_6 
REMARK    3  A    between atoms: C15_13  and  C18_16 
REMARK    4  A    between atoms: C18_16  and  C20_18 
REMARK    5  A    between atoms: C20_18  and  C21_19 
REMARK    6  A    between atoms: C21_19  and  C22_20 
ROOT
ATOM      1  C08 CBD B1001       1.217   0.278   4.535  1.00 27.96     0.033 A 
ATOM      2  C11 CBD B1001       1.366   0.902   5.768  1.00 27.96     0.129 A 
ATOM      3  C12 CBD B1001       0.442   0.897   3.544  1.00 27.96     0.129 A 
ATOM      4  C15 CBD B1001      -0.063   2.707   5.080  1.00 27.96    -0.018 A 
ATOM      5  C16 CBD B1001       0.721   2.100   6.053  1.00 27.96     0.023 A 
ATOM      6  C17 CBD B1001      -0.206   2.105   3.828  1.00 27.96     0.023 A 
ATOM      7  O01 CBD B1001       2.160   0.277   6.741  1.00 27.96    -0.190 OA
ATOM      8  O02 CBD B1001       0.270   0.329   2.272  1.00 27.96    -0.190 OA
ENDROOT
BRANCH   1   9
ATOM      9  C04 CBD B1001       2.027  -1.031   4.379  1.00 27.96     0.051 C 
ATOM     10  C07 CBD B1001       3.183  -0.652   3.478  1.00 27.96    -0.030 C 
ATOM     11  C09 CBD B1001       4.194  -1.485   3.497  1.00 27.96    -0.048 C 
ATOM     12  C06 CBD B1001       3.938  -2.992   3.425  1.00 27.96     0.022 C 
ATOM     13  C13 CBD B1001       5.440  -1.018   4.244  1.00 27.96     0.026 C 
ATOM     14  C05 CBD B1001       2.502  -3.412   3.805  1.00 27.96     0.009 C 
ATOM     15  C03 CBD B1001       1.440  -2.300   3.748  1.00 27.96     0.027 C 
BRANCH  15  16
ATOM     16  C10 CBD B1001       0.215  -2.860   4.481  1.00 27.96    -0.044 C 
ATOM     17  C19 CBD B1001       0.362  -3.615   5.571  1.00 27.96    -0.009 C 
ATOM     18  C14 CBD B1001      -1.192  -2.574   3.921  1.00 27.96     0.026 C 
ENDBRANCH  15  16
ENDBRANCH   1   9
BRANCH   4  19
ATOM     19  C18 CBD B1001      -0.772   4.042   5.417  1.00 27.96     0.026 C 
BRANCH  19  20
ATOM     20  C20 CBD B1001      -1.734   3.814   6.613  1.00 27.96     0.005 C 
BRANCH  20  21
ATOM     21  C21 CBD B1001      -2.928   2.918   6.175  1.00 27.96     0.000 C 
BRANCH  21  22
ATOM     22  C22 CBD B1001      -2.971   1.654   7.066  1.00 27.96     0.000 C 
ATOM     23  C23 CBD B1001      -2.661   0.409   6.199  1.00 27.96     0.000 C 
ENDBRANCH  21  22
ENDBRANCH  20  21
ENDBRANCH  19  20
ENDBRANCH   4  19
TORSDOF 6
ENDMDL
MODEL 6
REMARK VINA RESULT:     0.000      4.284      8.285
REMARK INTER + INTRA:          -1.663
REMARK INTER:                   0.000
REMARK INTRA:                  -1.663
REMARK UNBOUND:                -1.663
REMARK  6 active torsions:
REMARK  status: ('A' for Active; 'I' for Inactive)
REMARK    1  A    between atoms: C03_1  and  C10_8 
REMARK    2  A    between atoms: C04_2  and  C08_6 
REMARK    3  A    between atoms: C15_13  and  C18_16 
REMARK    4  A    between atoms: C18_16  and  C20_18 
REMARK    5  A    between atoms: C20_18  and  C21_19 
REMARK    6  A    between atoms: C21_19  and  C22_20 
ROOT
ATOM      1  C08 CBD B1001       4.945  -0.632   0.674  1.00 27.96     0.033 A 
ATOM      2  C11 CBD B1001       4.859  -1.016   2.007  1.00 27.96     0.129 A 
ATOM      3  C12 CBD B1001       3.956   0.203   0.135  1.00 27.96     0.129 A 
ATOM      4  C15 CBD B1001       2.792   0.183   2.265  1.00 27.96    -0.018 A 
ATOM      5  C16 CBD B1001       3.784  -0.629   2.801  1.00 27.96     0.023 A 
ATOM      6  C17 CBD B1001       2.875   0.596   0.934  1.00 27.96     0.023 A 
ATOM      7  O01 CBD B1001       5.867  -1.836   2.533  1.00 27.96    -0.190 OA
ATOM      8  O02 CBD B1001       3.998   0.642  -1.197  1.00 27.96    -0.190 OA
ENDROOT
BRANCH   1   9
ATOM      9  C04 CBD B1001       6.219  -1.127  -0.052  1.00 27.96     0.051 C 
ATOM     10  C07 CBD B1001       7.089   0.107  -0.167  1.00 27.96    -0.030 C 
ATOM     11  C09 CBD B1001       8.354  -0.130  -0.411  1.00 27.96    -0.048 C 
ATOM     12  C06 CBD B1001       8.742  -1.153  -1.481  1.00 27.96     0.022 C 
ATOM     13  C13 CBD B1001       9.316   0.066   0.757  1.00 27.96     0.026 C 
ATOM     14  C05 CBD B1001       7.620  -2.149  -1.846  1.00 27.96     0.009 C 
ATOM     15  C03 CBD B1001       6.192  -1.718  -1.467  1.00 27.96     0.027 C 
BRANCH  15  16
ATOM     16  C10 CBD B1001       5.329  -2.978  -1.607  1.00 27.96    -0.044 C 
ATOM     17  C19 CBD B1001       5.806  -4.171  -1.247  1.00 27.96    -0.009 C 
ATOM     18  C14 CBD B1001       3.914  -2.859  -2.206  1.00 27.96     0.026 C 
ENDBRANCH  15  16
ENDBRANCH   1   9
BRANCH   4  19
ATOM     19  C18 CBD B1001       1.604   0.605   3.166  1.00 27.96     0.026 C 
BRANCH  19  20
ATOM     20  C20 CBD B1001       0.857  -0.669   3.642  1.00 27.96     0.005 C 
BRANCH  20  21
ATOM     21  C21 CBD B1001       0.128  -1.342   2.443  1.00 27.96     0.000 C 
BRANCH  21  22
ATOM     22  C22 CBD B1001       0.637  -2.794   2.286  1.00 27.96     0.000 C 
ATOM     23  C23 CBD B1001       1.409  -2.922   0.951  1.00 27.96     0.000 C 
ENDBRANCH  21  22
ENDBRANCH  20  21
ENDBRANCH  19  20
ENDBRANCH   4  19
TORSDOF 6
ENDMDL
MODEL 7
REMARK VINA RESULT:     0.000      4.663      9.288
REMARK INTER + INTRA:          -1.663
REMARK INTER:                   0.000
REMARK INTRA:                  -1.663
REMARK UNBOUND:                -1.663
REMARK  6 active torsions:
REMARK  status: ('A' for Active; 'I' for Inactive)
REMARK    1  A    between atoms: C03_1  and  C10_8 
REMARK    2  A    between atoms: C04_2  and  C08_6 
REMARK    3  A    between atoms: C15_13  and  C18_16 
REMARK    4  A    between atoms: C18_16  and  C20_18 
REMARK    5  A    between atoms: C20_18  and  C21_19 
REMARK    6  A    between atoms: C21_19  and  C22_20 
ROOT
ATOM      1  C08 CBD B1001       4.272   0.990  -1.891  1.00 27.96     0.033 A 
ATOM      2  C11 CBD B1001       2.914   1.008  -2.190  1.00 27.96     0.129 A 
ATOM      3  C12 CBD B1001       4.777  -0.020  -1.060  1.00 27.96     0.129 A 
ATOM      4  C15 CBD B1001       2.537  -0.917  -0.801  1.00 27.96    -0.018 A 
ATOM      5  C16 CBD B1001       2.043   0.074  -1.640  1.00 27.96     0.023 A 
ATOM      6  C17 CBD B1001       3.902  -0.963  -0.508  1.00 27.96     0.023 A 
ATOM      7  O01 CBD B1001       2.430   2.015  -3.037  1.00 27.96    -0.190 OA
ATOM      8  O02 CBD B1001       6.141  -0.105  -0.739  1.00 27.96    -0.190 OA
ENDROOT
BRANCH   1   9
ATOM      9  C04 CBD B1001       5.099   2.082  -2.611  1.00 27.96     0.051 C 
ATOM     10  C07 CBD B1001       5.845   1.334  -3.695  1.00 27.96    -0.030 C 
ATOM     11  C09 CBD B1001       6.320   2.086  -4.658  1.00 27.96    -0.048 C 
ATOM     12  C06 CBD B1001       7.047   3.388  -4.315  1.00 27.96     0.022 C 
ATOM     13  C13 CBD B1001       5.583   2.021  -5.992  1.00 27.96     0.026 C 
ATOM     14  C05 CBD B1001       6.749   3.931  -2.901  1.00 27.96     0.009 C 
ATOM     15  C03 CBD B1001       6.173   2.913  -1.900  1.00 27.96     0.027 C 
BRANCH  15  16
ATOM     16  C10 CBD B1001       5.651   3.743  -0.722  1.00 27.96    -0.044 C 
ATOM     17  C19 CBD B1001       5.052   4.918  -0.930  1.00 27.96    -0.009 C 
ATOM     18  C14 CBD B1001       5.860   3.226   0.715  1.00 27.96     0.026 C 
ENDBRANCH  15  16
ENDBRANCH   1   9
BRANCH   4  19
ATOM     19  C18 CBD B1001       1.550  -1.948  -0.200  1.00 27.96     0.026 C 
BRANCH  19  20
ATOM     20  C20 CBD B1001       0.496  -1.197   0.655  1.00 27.96     0.005 C 
BRANCH  20  21
ATOM     21  C21 CBD B1001       1.163  -0.609   1.932  1.00 27.96     0.000 C 
BRANCH  21  22
ATOM     22  C22 CBD B1001       0.953   0.923   1.958  1.00 27.96     0.000 C 
ATOM     23  C23 CBD B1001       2.322   1.628   1.799  1.00 27.96     0.000 C 
ENDBRANCH  21  22
ENDBRANCH  20  21
ENDBRANCH  19  20
ENDBRANCH   4  19
TORSDOF 6
ENDMDL
MODEL 8
REMARK VINA RESULT:     0.000      5.702      9.047
REMARK INTER + INTRA:          -1.663
REMARK INTER:                   0.000
REMARK INTRA:                  -1.663
REMARK UNBOUND:                -1.663
REMARK  6 active torsions:
REMARK  status: ('A' for Active; 'I' for Inactive)
REMARK    1  A    between atoms: C03_1  and  C10_8 
REMARK    2  A    between atoms: C04_2  and  C08_6 
REMARK    3  A    between atoms: C15_13  and  C18_16 
REMARK    4  A    between atoms: C18_16  and  C20_18 
REMARK    5  A    between atoms: C20_18  and  C21_19 
REMARK    6  A    between atoms: C21_19  and  C22_20 
ROOT
ATOM      1  C08 CBD B1001       1.377   2.648  -1.452  1.00 27.96     0.033 A 
ATOM      2  C11 CBD B1001       0.472   3.512  -0.848  1.00 27.96     0.129 A 
ATOM      3  C12 CBD B1001       1.125   1.269  -1.434  1.00 27.96     0.129 A 
ATOM      4  C15 CBD B1001      -0.894   1.663  -0.147  1.00 27.96    -0.018 A 
ATOM      5  C16 CBD B1001      -0.651   3.031  -0.183  1.00 27.96     0.023 A 
ATOM      6  C17 CBD B1001      -0.006   0.783  -0.768  1.00 27.96     0.023 A 
ATOM      7  O01 CBD B1001       0.731   4.890  -0.892  1.00 27.96    -0.190 OA
ATOM      8  O02 CBD B1001       1.990   0.348  -2.045  1.00 27.96    -0.190 OA
ENDROOT
BRANCH   1   9
ATOM      9  C04 CBD B1001       2.552   3.354  -2.171  1.00 27.96     0.051 C 
ATOM     10  C07 CBD B1001       2.224   3.227  -3.642  1.00 27.96    -0.030 C 
ATOM     11  C09 CBD B1001       2.870   4.055  -4.426  1.00 27.96    -0.048 C 
ATOM     12  C06 CBD B1001       4.374   4.263  -4.235  1.00 27.96     0.022 C 
ATOM     13  C13 CBD B1001       2.064   5.222  -4.988  1.00 27.96     0.026 C 
ATOM     14  C05 CBD B1001       4.904   3.839  -2.849  1.00 27.96     0.009 C 
ATOM     15  C03 CBD B1001       4.005   2.876  -2.052  1.00 27.96     0.027 C 
BRANCH  15  16
ATOM     16  C10 CBD B1001       4.556   2.884  -0.622  1.00 27.96    -0.044 C 
ATOM     17  C19 CBD B1001       5.010   4.013  -0.074  1.00 27.96    -0.009 C 
ATOM     18  C14 CBD B1001       4.619   1.562   0.167  1.00 27.96     0.026 C 
ENDBRANCH  15  16
ENDBRANCH   1   9
BRANCH   4  19
ATOM     19  C18 CBD B1001      -2.151   1.147   0.597  1.00 27.96     0.026 C 
BRANCH  19  20
ATOM     20  C20 CBD B1001      -2.064   1.573   2.087  1.00 27.96     0.005 C 
BRANCH  20  21
ATOM     21  C21 CBD B1001      -0.924   0.791   2.801  1.00 27.96     0.000 C 
BRANCH  21  22
ATOM     22  C22 CBD B1001       0.093   1.797   3.391  1.00 27.96     0.000 C 
ATOM     23  C23 CBD B1001       1.444   1.650   2.649  1.00 27.96     0.000 C 
ENDBRANCH  21  22
ENDBRANCH  20  21
ENDBRANCH  19  20
ENDBRANCH   4  19
TORSDOF 6
ENDMDL
MODEL 9
REMARK VINA RESULT:     0.000      3.569      5.195
REMARK INTER + INTRA:          -1.662
REMARK INTER:                   0.000
REMARK INTRA:                  -1.662
REMARK UNBOUND:                -1.663
REMARK  6 active torsions:
REMARK  status: ('A' for Active; 'I' for Inactive)
REMARK    1  A    between atoms: C03_1  and  C10_8 
REMARK    2  A    between atoms: C04_2  and  C08_6 
REMARK    3  A    between atoms: C15_13  and  C18_16 
REMARK    4  A    between atoms: C18_16  and  C20_18 
REMARK    5  A    between atoms: C20_18  and  C21_19 
REMARK    6  A    between atoms: C21_19  and  C22_20 
ROOT
ATOM      1  C08 CBD B1001      -3.871  -2.346  -0.331  1.00 27.96     0.033 A 
ATOM      2  C11 CBD B1001      -3.951  -0.972  -0.131  1.00 27.96     0.129 A 
ATOM      3  C12 CBD B1001      -2.611  -2.950  -0.443  1.00 27.96     0.129 A 
ATOM      4  C15 CBD B1001      -1.558  -0.775  -0.222  1.00 27.96    -0.018 A 
ATOM      5  C16 CBD B1001      -2.807  -0.182  -0.092  1.00 27.96     0.023 A 
ATOM      6  C17 CBD B1001      -1.458  -2.156  -0.401  1.00 27.96     0.023 A 
ATOM      7  O01 CBD B1001      -5.219  -0.388  -0.003  1.00 27.96    -0.190 OA
ATOM      8  O02 CBD B1001      -2.464  -4.334  -0.623  1.00 27.96    -0.190 OA
ENDROOT
BRANCH   1   9
ATOM      9  C04 CBD B1001      -5.237  -3.073  -0.318  1.00 27.96     0.051 C 
ATOM     10  C07 CBD B1001      -5.273  -3.781   1.019  1.00 27.96    -0.030 C 
ATOM     11  C09 CBD B1001      -6.465  -4.158   1.413  1.00 27.96    -0.048 C 
ATOM     12  C06 CBD B1001      -7.408  -4.846   0.424  1.00 27.96     0.022 C 
ATOM     13  C13 CBD B1001      -7.096  -3.339   2.535  1.00 27.96     0.026 C 
ATOM     14  C05 CBD B1001      -7.053  -4.615  -1.060  1.00 27.96     0.009 C 
ATOM     15  C03 CBD B1001      -5.611  -4.153  -1.341  1.00 27.96     0.027 C 
BRANCH  15  16
ATOM     16  C10 CBD B1001      -5.608  -3.670  -2.796  1.00 27.96    -0.044 C 
ATOM     17  C19 CBD B1001      -6.653  -3.006  -3.294  1.00 27.96    -0.009 C 
ATOM     18  C14 CBD B1001      -4.399  -3.996  -3.694  1.00 27.96     0.026 C 
ENDBRANCH  15  16
ENDBRANCH   1   9
BRANCH   4  19
ATOM     19  C18 CBD B1001      -0.296   0.123  -0.174  1.00 27.96     0.026 C 
BRANCH  19  20
ATOM     20  C20 CBD B1001      -0.367   1.153  -1.332  1.00 27.96     0.005 C 
BRANCH  20  21
ATOM     21  C21 CBD B1001      -0.196   0.432  -2.700  1.00 27.96     0.000 C 
BRANCH  21  22
ATOM     22  C22 CBD B1001      -1.436   0.710  -3.583  1.00 27.96     0.000 C 
ATOM     23  C23 CBD B1001      -2.211  -0.611  -3.804  1.00 27.96     0.000 C 
ENDBRANCH  21  22
ENDBRANCH  20  21
ENDBRANCH  19  20
ENDBRANCH   4  19
TORSDOF 6
ENDMDL
