MODEL 1
REMARK VINA RESULT:    -0.000      0.000      0.000
REMARK INTER + INTRA:          -1.663
REMARK INTER:                   0.000
REMARK INTRA:                  -1.663
REMARK UNBOUND:                -1.663
REMARK  6 active torsions:
REMARK  status: ('A' for Active; 'I' for Inactive)
REMARK    1  A    between atoms: C03_1  and  C10_8 
REMARK    2  A    between atoms: C04_2  and  C08_6 
REMARK    3  A    between atoms: C15_13  and  C18_16 
REMARK    4  A    between atoms: C18_16  and  C20_18 
REMARK    5  A    between atoms: C20_18  and  C21_19 
REMARK    6  A    between atoms: C21_19  and  C22_20 
ROOT
ATOM      1  C08 CBD B1001       0.602   0.395  -2.049  1.00 27.96     0.033 A 
ATOM      2  C11 CBD B1001       1.429   0.874  -1.040  1.00 27.96     0.129 A 
ATOM      3  C12 CBD B1001       0.951   0.625  -3.388  1.00 27.96     0.129 A 
ATOM      4  C15 CBD B1001       2.903   1.867  -2.657  1.00 27.96    -0.018 A 
ATOM      5  C16 CBD B1001       2.565   1.621  -1.332  1.00 27.96     0.023 A 
ATOM      6  C17 CBD B1001       2.096   1.374  -3.684  1.00 27.96     0.023 A 
ATOM      7  O01 CBD B1001       1.074   0.619   0.292  1.00 27.96    -0.190 OA
ATOM      8  O02 CBD B1001       0.169   0.148  -4.451  1.00 27.96    -0.190 OA
ENDROOT
BRANCH   1   9
ATOM      9  C04 CBD B1001      -0.601  -0.439  -1.548  1.00 27.96     0.051 C 
ATOM     10  C07 CBD B1001      -0.227  -1.870  -1.869  1.00 27.96    -0.030 C 
ATOM     11  C09 CBD B1001      -0.909  -2.780  -1.219  1.00 27.96    -0.048 C 
ATOM     12  C06 CBD B1001      -2.429  -2.644  -1.096  1.00 27.96     0.022 C 
ATOM     13  C13 CBD B1001      -0.174  -3.500  -0.093  1.00 27.96     0.026 C 
ATOM     14  C05 CBD B1001      -2.963  -1.218  -1.345  1.00 27.96     0.009 C 
ATOM     15  C03 CBD B1001      -2.018  -0.271  -2.108  1.00 27.96     0.027 C 
BRANCH  15  16
ATOM     16  C10 CBD B1001      -2.606   1.133  -1.926  1.00 27.96    -0.044 C 
ATOM     17  C19 CBD B1001      -3.152   1.497  -0.764  1.00 27.96    -0.009 C 
ATOM     18  C14 CBD B1001      -2.595   2.113  -3.116  1.00 27.96     0.026 C 
ENDBRANCH  15  16
ENDBRANCH   1   9
BRANCH   4  19
ATOM     19  C18 CBD B1001       4.174   2.699  -2.961  1.00 27.96     0.026 C 
BRANCH  19  20
ATOM     20  C20 CBD B1001       4.018   4.106  -2.326  1.00 27.96     0.005 C 
BRANCH  20  21
ATOM     21  C21 CBD B1001       2.919   4.913  -3.074  1.00 27.96     0.000 C 
BRANCH  21  22
ATOM     22  C22 CBD B1001       1.819   5.330  -2.070  1.00 27.96     0.000 C 
ATOM     23  C23 CBD B1001       0.501   4.599  -2.425  1.00 27.96     0.000 C 
ENDBRANCH  21  22
ENDBRANCH  20  21
ENDBRANCH  19  20
ENDBRANCH   4  19
TORSDOF 6
ENDMDL
MODEL 2
REMARK VINA RESULT:     0.000      4.924      6.939
REMARK INTER + INTRA:          -1.663
REMARK INTER:                   0.000
REMARK INTRA:                  -1.663
REMARK UNBOUND:                -1.663
REMARK  6 active torsions:
REMARK  status: ('A' for Active; 'I' for Inactive)
REMARK    1  A    between atoms: C03_1  and  C10_8 
REMARK    2  A    between atoms: C04_2  and  C08_6 
REMARK    3  A    between atoms: C15_13  and  C18_16 
REMARK    4  A    between atoms: C18_16  and  C20_18 
REMARK    5  A    between atoms: C20_18  and  C21_19 
REMARK    6  A    between atoms: C21_19  and  C22_20 
ROOT
ATOM      1  C08 CBD B1001      -2.924   1.610   3.217  1.00 27.96     0.033 A 
ATOM      2  C11 CBD B1001      -2.965   2.878   3.783  1.00 27.96     0.129 A 
ATOM      3  C12 CBD B1001      -2.124   0.621   3.808  1.00 27.96     0.129 A 
ATOM      4  C15 CBD B1001      -1.382   2.227   5.470  1.00 27.96    -0.018 A 
ATOM      5  C16 CBD B1001      -2.190   3.198   4.893  1.00 27.96     0.023 A 
ATOM      6  C17 CBD B1001      -1.346   0.940   4.927  1.00 27.96     0.023 A 
ATOM      7  O01 CBD B1001      -3.784   3.849   3.188  1.00 27.96    -0.190 OA
ATOM      8  O02 CBD B1001      -2.057  -0.684   3.297  1.00 27.96    -0.190 OA
ENDROOT
BRANCH   1   9
ATOM      9  C04 CBD B1001      -3.869   1.419   2.007  1.00 27.96     0.051 C 
ATOM     10  C07 CBD B1001      -5.010   0.586   2.549  1.00 27.96    -0.030 C 
ATOM     11  C09 CBD B1001      -6.101   0.603   1.823  1.00 27.96    -0.048 C 
ATOM     12  C06 CBD B1001      -6.004   0.444   0.305  1.00 27.96     0.022 C 
ATOM     13  C13 CBD B1001      -7.265   1.423   2.372  1.00 27.96     0.026 C 
ATOM     14  C05 CBD B1001      -4.607   0.743  -0.279  1.00 27.96     0.009 C 
ATOM     15  C03 CBD B1001      -3.438   0.701   0.722  1.00 27.96     0.027 C 
BRANCH  15  16
ATOM     16  C10 CBD B1001      -2.253   1.354   0.002  1.00 27.96    -0.044 C 
ATOM     17  C19 CBD B1001      -2.439   2.409  -0.794  1.00 27.96    -0.009 C 
ATOM     18  C14 CBD B1001      -0.844   0.754   0.174  1.00 27.96     0.026 C 
ENDBRANCH  15  16
ENDBRANCH   1   9
BRANCH   4  19
ATOM     19  C18 CBD B1001      -0.529   2.603   6.706  1.00 27.96     0.026 C 
BRANCH  19  20
ATOM     20  C20 CBD B1001       0.446   3.745   6.316  1.00 27.96     0.005 C 
BRANCH  20  21
ATOM     21  C21 CBD B1001       1.525   3.215   5.330  1.00 27.96     0.000 C 
BRANCH  21  22
ATOM     22  C22 CBD B1001       1.469   4.037   4.021  1.00 27.96     0.000 C 
ATOM     23  C23 CBD B1001       1.002   3.121   2.863  1.00 27.96     0.000 C 
ENDBRANCH  21  22
ENDBRANCH  20  21
ENDBRANCH  19  20
ENDBRANCH   4  19
TORSDOF 6
ENDMDL
MODEL 3
REMARK VINA RESULT:     0.000      5.620      7.729
REMARK INTER + INTRA:          -1.663
REMARK INTER:                   0.000
REMARK INTRA:                  -1.663
REMARK UNBOUND:                -1.663
REMARK  6 active torsions:
REMARK  status: ('A' for Active; 'I' for Inactive)
REMARK    1  A    between atoms: C03_1  and  C10_8 
REMARK    2  A    between atoms: C04_2  and  C08_6 
REMARK    3  A    between atoms: C15_13  and  C18_16 
REMARK    4  A    between atoms: C18_16  and  C20_18 
REMARK    5  A    between atoms: C20_18  and  C21_19 
REMARK    6  A    between atoms: C21_19  and  C22_20 
ROOT
ATOM      1  C08 CBD B1001      -0.472   6.241  -4.781  1.00 27.96     0.033 A 
ATOM      2  C11 CBD B1001      -0.692   7.504  -4.246  1.00 27.96     0.129 A 
ATOM      3  C12 CBD B1001      -0.015   5.212  -3.945  1.00 27.96     0.129 A 
ATOM      4  C15 CBD B1001       0.053   6.767  -2.083  1.00 27.96    -0.018 A 
ATOM      5  C16 CBD B1001      -0.418   7.779  -2.910  1.00 27.96     0.023 A 
ATOM      6  C17 CBD B1001       0.258   5.486  -2.599  1.00 27.96     0.023 A 
ATOM      7  O01 CBD B1001      -1.167   8.516  -5.093  1.00 27.96    -0.190 OA
ATOM      8  O02 CBD B1001       0.205   3.910  -4.421  1.00 27.96    -0.190 OA
ENDROOT
BRANCH   1   9
ATOM      9  C04 CBD B1001      -0.858   6.103  -6.274  1.00 27.96     0.051 C 
ATOM     10  C07 CBD B1001      -2.150   5.316  -6.257  1.00 27.96    -0.030 C 
ATOM     11  C09 CBD B1001      -2.855   5.388  -7.359  1.00 27.96    -0.048 C 
ATOM     12  C06 CBD B1001      -2.161   5.239  -8.715  1.00 27.96     0.022 C 
ATOM     13  C13 CBD B1001      -4.111   6.253  -7.303  1.00 27.96     0.026 C 
ATOM     14  C05 CBD B1001      -0.637   5.483  -8.681  1.00 27.96     0.009 C 
ATOM     15  C03 CBD B1001       0.027   5.379  -7.296  1.00 27.96     0.027 C 
BRANCH  15  16
ATOM     16  C10 CBD B1001       1.425   5.987  -7.462  1.00 27.96    -0.044 C 
ATOM     17  C19 CBD B1001       1.613   7.057  -8.236  1.00 27.96    -0.009 C 
ATOM     18  C14 CBD B1001       2.623   5.324  -6.754  1.00 27.96     0.026 C 
ENDBRANCH  15  16
ENDBRANCH   1   9
BRANCH   4  19
ATOM     19  C18 CBD B1001       0.350   7.094  -0.598  1.00 27.96     0.026 C 
BRANCH  19  20
ATOM     20  C20 CBD B1001       1.441   8.196  -0.534  1.00 27.96     0.005 C 
BRANCH  20  21
ATOM     21  C21 CBD B1001       2.806   7.628  -1.018  1.00 27.96     0.000 C 
BRANCH  21  22
ATOM     22  C22 CBD B1001       3.311   8.464  -2.217  1.00 27.96     0.000 C 
ATOM     23  C23 CBD B1001       3.316   7.581  -3.488  1.00 27.96     0.000 C 
ENDBRANCH  21  22
ENDBRANCH  20  21
ENDBRANCH  19  20
ENDBRANCH   4  19
TORSDOF 6
ENDMDL
MODEL 4
REMARK VINA RESULT:     0.000      4.234      5.463
REMARK INTER + INTRA:          -1.663
REMARK INTER:                   0.000
REMARK INTRA:                  -1.663
REMARK UNBOUND:                -1.663
REMARK  6 active torsions:
REMARK  status: ('A' for Active; 'I' for Inactive)
REMARK    1  A    between atoms: C03_1  and  C10_8 
REMARK    2  A    between atoms: C04_2  and  C08_6 
REMARK    3  A    between atoms: C15_13  and  C18_16 
REMARK    4  A    between atoms: C18_16  and  C20_18 
REMARK    5  A    between atoms: C20_18  and  C21_19 
REMARK    6  A    between atoms: C21_19  and  C22_20 
ROOT
ATOM      1  C08 CBD B1001      -1.244   5.128  -1.347  1.00 27.96     0.033 A 
ATOM      2  C11 CBD B1001      -0.605   6.297  -0.949  1.00 27.96     0.129 A 
ATOM      3  C12 CBD B1001      -0.472   4.020  -1.726  1.00 27.96     0.129 A 
ATOM      4  C15 CBD B1001       1.549   5.313  -1.362  1.00 27.96    -0.018 A 
ATOM      5  C16 CBD B1001       0.782   6.403  -0.969  1.00 27.96     0.023 A 
ATOM      6  C17 CBD B1001       0.924   4.124  -1.743  1.00 27.96     0.023 A 
ATOM      7  O01 CBD B1001      -1.392   7.389  -0.556  1.00 27.96    -0.190 OA
ATOM      8  O02 CBD B1001      -1.058   2.806  -2.116  1.00 27.96    -0.190 OA
ENDROOT
BRANCH   1   9
ATOM      9  C04 CBD B1001      -2.786   5.174  -1.235  1.00 27.96     0.051 C 
ATOM     10  C07 CBD B1001      -3.100   4.331  -0.018  1.00 27.96    -0.030 C 
ATOM     11  C09 CBD B1001      -4.293   4.516   0.490  1.00 27.96    -0.048 C 
ATOM     12  C06 CBD B1001      -5.510   4.584  -0.435  1.00 27.96     0.022 C 
ATOM     13  C13 CBD B1001      -4.357   5.304   1.795  1.00 27.96     0.026 C 
ATOM     14  C05 CBD B1001      -5.172   4.893  -1.909  1.00 27.96     0.009 C 
ATOM     15  C03 CBD B1001      -3.714   4.637  -2.332  1.00 27.96     0.027 C 
BRANCH  15  16
ATOM     16  C10 CBD B1001      -3.550   5.328  -3.690  1.00 27.96    -0.044 C 
ATOM     17  C19 CBD B1001      -4.140   6.499  -3.933  1.00 27.96    -0.009 C 
ATOM     18  C14 CBD B1001      -2.726   4.634  -4.793  1.00 27.96     0.026 C 
ENDBRANCH  15  16
ENDBRANCH   1   9
BRANCH   4  19
ATOM     19  C18 CBD B1001       3.092   5.451  -1.376  1.00 27.96     0.026 C 
BRANCH  19  20
ATOM     20  C20 CBD B1001       3.487   6.587  -2.356  1.00 27.96     0.005 C 
BRANCH  20  21
ATOM     21  C21 CBD B1001       3.190   6.156  -3.821  1.00 27.96     0.000 C 
BRANCH  21  22
ATOM     22  C22 CBD B1001       2.213   7.169  -4.463  1.00 27.96     0.000 C 
ATOM     23  C23 CBD B1001       0.865   6.464  -4.752  1.00 27.96     0.000 C 
ENDBRANCH  21  22
ENDBRANCH  20  21
ENDBRANCH  19  20
ENDBRANCH   4  19
TORSDOF 6
ENDMDL
MODEL 5
REMARK VINA RESULT:     0.000      4.535      6.459
REMARK INTER + INTRA:          -1.663
REMARK INTER:                   0.000
REMARK INTRA:                  -1.663
REMARK UNBOUND:                -1.663
REMARK  6 active torsions:
REMARK  status: ('A' for Active; 'I' for Inactive)
REMARK    1  A    between atoms: C03_1  and  C10_8 
REMARK    2  A    between atoms: C04_2  and  C08_6 
REMARK    3  A    between atoms: C15_13  and  C18_16 
REMARK    4  A    between atoms: C18_16  and  C20_18 
REMARK    5  A    between atoms: C20_18  and  C21_19 
REMARK    6  A    between atoms: C21_19  and  C22_20 
ROOT
ATOM      1  C08 CBD B1001       0.511   0.862   3.083  1.00 27.96     0.033 A 
ATOM      2  C11 CBD B1001      -0.372   0.607   2.040  1.00 27.96     0.129 A 
ATOM      3  C12 CBD B1001       0.974   2.170   3.285  1.00 27.96     0.129 A 
ATOM      4  C15 CBD B1001      -0.292   2.908   1.350  1.00 27.96    -0.018 A 
ATOM      5  C16 CBD B1001      -0.764   1.614   1.164  1.00 27.96     0.023 A 
ATOM      6  C17 CBD B1001       0.578   3.186   2.406  1.00 27.96     0.023 A 
ATOM      7  O01 CBD B1001      -0.839  -0.704   1.865  1.00 27.96    -0.190 OA
ATOM      8  O02 CBD B1001       1.849   2.495   4.332  1.00 27.96    -0.190 OA
ENDROOT
BRANCH   1   9
ATOM      9  C04 CBD B1001       0.816  -0.364   3.976  1.00 27.96     0.051 C 
ATOM     10  C07 CBD B1001       0.036  -0.107   5.247  1.00 27.96    -0.030 C 
ATOM     11  C09 CBD B1001      -0.158  -1.162   5.999  1.00 27.96    -0.048 C 
ATOM     12  C06 CBD B1001       1.002  -2.122   6.275  1.00 27.96     0.022 C 
ATOM     13  C13 CBD B1001      -1.568  -1.745   5.995  1.00 27.96     0.026 C 
ATOM     14  C05 CBD B1001       2.168  -2.016   5.269  1.00 27.96     0.009 C 
ATOM     15  C03 CBD B1001       2.232  -0.713   4.451  1.00 27.96     0.027 C 
BRANCH  15  16
ATOM     16  C10 CBD B1001       3.228  -0.986   3.317  1.00 27.96    -0.044 C 
ATOM     17  C19 CBD B1001       3.265  -2.177   2.717  1.00 27.96    -0.009 C 
ATOM     18  C14 CBD B1001       4.217   0.121   2.902  1.00 27.96     0.026 C 
ENDBRANCH  15  16
ENDBRANCH   1   9
BRANCH   4  19
ATOM     19  C18 CBD B1001      -0.742   4.015   0.364  1.00 27.96     0.026 C 
BRANCH  19  20
ATOM     20  C20 CBD B1001      -0.285   3.630  -1.068  1.00 27.96     0.005 C 
BRANCH  20  21
ATOM     21  C21 CBD B1001       1.265   3.714  -1.176  1.00 27.96     0.000 C 
BRANCH  21  22
ATOM     22  C22 CBD B1001       1.821   2.335  -1.603  1.00 27.96     0.000 C 
ATOM     23  C23 CBD B1001       2.659   1.743  -0.443  1.00 27.96     0.000 C 
ENDBRANCH  21  22
ENDBRANCH  20  21
ENDBRANCH  19  20
ENDBRANCH   4  19
TORSDOF 6
ENDMDL
MODEL 6
REMARK VINA RESULT:     0.000      4.724      7.641
REMARK INTER + INTRA:          -1.663
REMARK INTER:                   0.000
REMARK INTRA:                  -1.663
REMARK UNBOUND:                -1.663
REMARK  6 active torsions:
REMARK  status: ('A' for Active; 'I' for Inactive)
REMARK    1  A    between atoms: C03_1  and  C10_8 
REMARK    2  A    between atoms: C04_2  and  C08_6 
REMARK    3  A    between atoms: C15_13  and  C18_16 
REMARK    4  A    between atoms: C18_16  and  C20_18 
REMARK    5  A    between atoms: C20_18  and  C21_19 
REMARK    6  A    between atoms: C21_19  and  C22_20 
ROOT
ATOM      1  C08 CBD B1001      -2.839   2.828   2.274  1.00 27.96     0.033 A 
ATOM      2  C11 CBD B1001      -2.301   3.701   3.212  1.00 27.96     0.129 A 
ATOM      3  C12 CBD B1001      -3.377   1.607   2.703  1.00 27.96     0.129 A 
ATOM      4  C15 CBD B1001      -2.756   2.145   4.986  1.00 27.96    -0.018 A 
ATOM      5  C16 CBD B1001      -2.241   3.363   4.560  1.00 27.96     0.023 A 
ATOM      6  C17 CBD B1001      -3.320   1.266   4.060  1.00 27.96     0.023 A 
ATOM      7  O01 CBD B1001      -1.784   4.926   2.767  1.00 27.96    -0.190 OA
ATOM      8  O02 CBD B1001      -3.954   0.693   1.807  1.00 27.96    -0.190 OA
ENDROOT
BRANCH   1   9
ATOM      9  C04 CBD B1001      -2.853   3.376   0.826  1.00 27.96     0.051 C 
ATOM     10  C07 CBD B1001      -4.301   3.736   0.574  1.00 27.96    -0.030 C 
ATOM     11  C09 CBD B1001      -4.501   4.549  -0.433  1.00 27.96    -0.048 C 
ATOM     12  C06 CBD B1001      -3.777   4.307  -1.759  1.00 27.96     0.022 C 
ATOM     13  C13 CBD B1001      -4.857   5.990  -0.079  1.00 27.96     0.026 C 
ATOM     14  C05 CBD B1001      -2.528   3.407  -1.647  1.00 27.96     0.009 C 
ATOM     15  C03 CBD B1001      -2.445   2.529  -0.385  1.00 27.96     0.027 C 
BRANCH  15  16
ATOM     16  C10 CBD B1001      -1.002   2.013  -0.336  1.00 27.96    -0.044 C 
ATOM     17  C19 CBD B1001       0.014   2.799  -0.695  1.00 27.96    -0.009 C 
ATOM     18  C14 CBD B1001      -0.738   0.557   0.096  1.00 27.96     0.026 C 
ENDBRANCH  15  16
ENDBRANCH   1   9
BRANCH   4  19
ATOM     19  C18 CBD B1001      -2.681   1.788   6.492  1.00 27.96     0.026 C 
BRANCH  19  20
ATOM     20  C20 CBD B1001      -1.192   1.761   6.929  1.00 27.96     0.005 C 
BRANCH  20  21
ATOM     21  C21 CBD B1001      -0.464   0.552   6.275  1.00 27.96     0.000 C 
BRANCH  21  22
ATOM     22  C22 CBD B1001       0.729   1.067   5.436  1.00 27.96     0.000 C 
ATOM     23  C23 CBD B1001       0.459   0.785   3.938  1.00 27.96     0.000 C 
ENDBRANCH  21  22
ENDBRANCH  20  21
ENDBRANCH  19  20
ENDBRANCH   4  19
TORSDOF 6
ENDMDL
MODEL 7
REMARK VINA RESULT:     0.000      5.276      7.978
REMARK INTER + INTRA:          -1.663
REMARK INTER:                   0.000
REMARK INTRA:                  -1.663
REMARK UNBOUND:                -1.663
REMARK  6 active torsions:
REMARK  status: ('A' for Active; 'I' for Inactive)
REMARK    1  A    between atoms: C03_1  and  C10_8 
REMARK    2  A    between atoms: C04_2  and  C08_6 
REMARK    3  A    between atoms: C15_13  and  C18_16 
REMARK    4  A    between atoms: C18_16  and  C20_18 
REMARK    5  A    between atoms: C20_18  and  C21_19 
REMARK    6  A    between atoms: C21_19  and  C22_20 
ROOT
ATOM      1  C08 CBD B1001      -1.287  -0.783   3.127  1.00 27.96     0.033 A 
ATOM      2  C11 CBD B1001      -2.595  -0.893   3.583  1.00 27.96     0.129 A 
ATOM      3  C12 CBD B1001      -0.254  -1.392   3.854  1.00 27.96     0.129 A 
ATOM      4  C15 CBD B1001      -1.869  -2.140   5.505  1.00 27.96    -0.018 A 
ATOM      5  C16 CBD B1001      -2.892  -1.551   4.772  1.00 27.96     0.023 A 
ATOM      6  C17 CBD B1001      -0.551  -2.058   5.050  1.00 27.96     0.023 A 
ATOM      7  O01 CBD B1001      -3.617  -0.293   2.833  1.00 27.96    -0.190 OA
ATOM      8  O02 CBD B1001       1.083  -1.335   3.434  1.00 27.96    -0.190 OA
ENDROOT
BRANCH   1   9
ATOM      9  C04 CBD B1001      -1.142  -0.045   1.775  1.00 27.96     0.051 C 
ATOM     10  C07 CBD B1001      -0.862  -1.145   0.774  1.00 27.96    -0.030 C 
ATOM     11  C09 CBD B1001      -1.064  -0.817  -0.478  1.00 27.96    -0.048 C 
ATOM     12  C06 CBD B1001      -0.545   0.523  -1.005  1.00 27.96     0.022 C 
ATOM     13  C13 CBD B1001      -2.314  -1.395  -1.136  1.00 27.96     0.026 C 
ATOM     14  C05 CBD B1001      -0.243   1.565   0.093  1.00 27.96     0.009 C 
ATOM     15  C03 CBD B1001      -0.055   1.005   1.515  1.00 27.96     0.027 C 
BRANCH  15  16
ATOM     16  C10 CBD B1001      -0.115   2.220   2.448  1.00 27.96    -0.044 C 
ATOM     17  C19 CBD B1001      -0.967   3.219   2.210  1.00 27.96    -0.009 C 
ATOM     18  C14 CBD B1001       0.849   2.295   3.648  1.00 27.96     0.026 C 
ENDBRANCH  15  16
ENDBRANCH   1   9
BRANCH   4  19
ATOM     19  C18 CBD B1001      -2.220  -2.870   6.825  1.00 27.96     0.026 C 
BRANCH  19  20
ATOM     20  C20 CBD B1001      -2.872  -1.856   7.802  1.00 27.96     0.005 C 
BRANCH  20  21
ATOM     21  C21 CBD B1001      -1.817  -0.818   8.280  1.00 27.96     0.000 C 
BRANCH  21  22
ATOM     22  C22 CBD B1001      -2.299   0.606   7.912  1.00 27.96     0.000 C 
ATOM     23  C23 CBD B1001      -1.346   1.207   6.850  1.00 27.96     0.000 C 
ENDBRANCH  21  22
ENDBRANCH  20  21
ENDBRANCH  19  20
ENDBRANCH   4  19
TORSDOF 6
ENDMDL
MODEL 8
REMARK VINA RESULT:     0.000      5.425      8.463
REMARK INTER + INTRA:          -1.663
REMARK INTER:                   0.000
REMARK INTRA:                  -1.663
REMARK UNBOUND:                -1.663
REMARK  6 active torsions:
REMARK  status: ('A' for Active; 'I' for Inactive)
REMARK    1  A    between atoms: C03_1  and  C10_8 
REMARK    2  A    between atoms: C04_2  and  C08_6 
REMARK    3  A    between atoms: C15_13  and  C18_16 
REMARK    4  A    between atoms: C18_16  and  C20_18 
REMARK    5  A    between atoms: C20_18  and  C21_19 
REMARK    6  A    between atoms: C21_19  and  C22_20 
ROOT
ATOM      1  C08 CBD B1001      -5.875   2.399  -2.440  1.00 27.96     0.033 A 
ATOM      2  C11 CBD B1001      -4.855   2.242  -1.510  1.00 27.96     0.129 A 
ATOM      3  C12 CBD B1001      -6.951   1.500  -2.436  1.00 27.96     0.129 A 
ATOM      4  C15 CBD B1001      -5.910   0.277  -0.616  1.00 27.96    -0.018 A 
ATOM      5  C16 CBD B1001      -4.855   1.181  -0.610  1.00 27.96     0.023 A 
ATOM      6  C17 CBD B1001      -6.955   0.433  -1.529  1.00 27.96     0.023 A 
ATOM      7  O01 CBD B1001      -3.796   3.162  -1.517  1.00 27.96    -0.190 OA
ATOM      8  O02 CBD B1001      -8.022   1.617  -3.335  1.00 27.96    -0.190 OA
ENDROOT
BRANCH   1   9
ATOM      9  C04 CBD B1001      -5.731   3.648  -3.342  1.00 27.96     0.051 C 
ATOM     10  C07 CBD B1001      -6.758   4.621  -2.805  1.00 27.96    -0.030 C 
ATOM     11  C09 CBD B1001      -6.577   5.868  -3.162  1.00 27.96    -0.048 C 
ATOM     12  C06 CBD B1001      -6.244   6.200  -4.619  1.00 27.96     0.022 C 
ATOM     13  C13 CBD B1001      -6.042   6.809  -2.087  1.00 27.96     0.026 C 
ATOM     14  C05 CBD B1001      -5.694   5.010  -5.433  1.00 27.96     0.009 C 
ATOM     15  C03 CBD B1001      -5.981   3.612  -4.855  1.00 27.96     0.027 C 
BRANCH  15  16
ATOM     16  C10 CBD B1001      -5.065   2.652  -5.623  1.00 27.96    -0.044 C 
ATOM     17  C19 CBD B1001      -3.827   3.016  -5.958  1.00 27.96    -0.009 C 
ATOM     18  C14 CBD B1001      -5.605   1.270  -6.041  1.00 27.96     0.026 C 
ENDBRANCH  15  16
ENDBRANCH   1   9
BRANCH   4  19
ATOM     19  C18 CBD B1001      -5.893  -0.897   0.395  1.00 27.96     0.026 C 
BRANCH  19  20
ATOM     20  C20 CBD B1001      -4.629  -1.762   0.140  1.00 27.96     0.005 C 
BRANCH  20  21
ATOM     21  C21 CBD B1001      -4.758  -2.509  -1.218  1.00 27.96     0.000 C 
BRANCH  21  22
ATOM     22  C22 CBD B1001      -3.569  -2.120  -2.129  1.00 27.96     0.000 C 
ATOM     23  C23 CBD B1001      -4.099  -1.323  -3.345  1.00 27.96     0.000 C 
ENDBRANCH  21  22
ENDBRANCH  20  21
ENDBRANCH  19  20
ENDBRANCH   4  19
TORSDOF 6
ENDMDL
MODEL 9
REMARK VINA RESULT:     0.000      3.730      8.025
REMARK INTER + INTRA:          -1.663
REMARK INTER:                   0.000
REMARK INTRA:                  -1.663
REMARK UNBOUND:                -1.663
REMARK  6 active torsions:
REMARK  status: ('A' for Active; 'I' for Inactive)
REMARK    1  A    between atoms: C03_1  and  C10_8 
REMARK    2  A    between atoms: C04_2  and  C08_6 
REMARK    3  A    between atoms: C15_13  and  C18_16 
REMARK    4  A    between atoms: C18_16  and  C20_18 
REMARK    5  A    between atoms: C20_18  and  C21_19 
REMARK    6  A    between atoms: C21_19  and  C22_20 
ROOT
ATOM      1  C08 CBD B1001      -2.267  -3.036  -2.165  1.00 27.96     0.033 A 
ATOM      2  C11 CBD B1001      -3.142  -3.834  -1.437  1.00 27.96     0.129 A 
ATOM      3  C12 CBD B1001      -2.452  -2.901  -3.548  1.00 27.96     0.129 A 
ATOM      4  C15 CBD B1001      -4.339  -4.422  -3.436  1.00 27.96    -0.018 A 
ATOM      5  C16 CBD B1001      -4.165  -4.539  -2.063  1.00 27.96     0.023 A 
ATOM      6  C17 CBD B1001      -3.483  -3.607  -4.179  1.00 27.96     0.023 A 
ATOM      7  O01 CBD B1001      -2.953  -3.943  -0.052  1.00 27.96    -0.190 OA
ATOM      8  O02 CBD B1001      -1.616  -2.093  -4.334  1.00 27.96    -0.190 OA
ENDROOT
BRANCH   1   9
ATOM      9  C04 CBD B1001      -1.209  -2.302  -1.307  1.00 27.96     0.051 C 
ATOM     10  C07 CBD B1001      -1.685  -0.866  -1.270  1.00 27.96    -0.030 C 
ATOM     11  C09 CBD B1001      -1.165  -0.136  -0.315  1.00 27.96    -0.048 C 
ATOM     12  C06 CBD B1001       0.340  -0.202  -0.043  1.00 27.96     0.022 C 
ATOM     13  C13 CBD B1001      -2.079   0.187   0.864  1.00 27.96     0.026 C 
ATOM     14  C05 CBD B1001       1.033  -1.462  -0.604  1.00 27.96     0.009 C 
ATOM     15  C03 CBD B1001       0.268  -2.213  -1.709  1.00 27.96     0.027 C 
BRANCH  15  16
ATOM     16  C10 CBD B1001       0.968  -3.570  -1.846  1.00 27.96    -0.044 C 
ATOM     17  C19 CBD B1001       1.425  -4.211  -0.769  1.00 27.96    -0.009 C 
ATOM     18  C14 CBD B1001       1.175  -4.171  -3.250  1.00 27.96     0.026 C 
ENDBRANCH  15  16
ENDBRANCH   1   9
BRANCH   4  19
ATOM     19  C18 CBD B1001      -5.485  -5.214  -4.114  1.00 27.96     0.026 C 
BRANCH  19  20
ATOM     20  C20 CBD B1001      -5.261  -6.731  -3.871  1.00 27.96     0.005 C 
BRANCH  20  21
ATOM     21  C21 CBD B1001      -4.018  -7.222  -4.667  1.00 27.96     0.000 C 
BRANCH  21  22
ATOM     22  C22 CBD B1001      -2.991  -7.832  -3.684  1.00 27.96     0.000 C 
ATOM     23  C23 CBD B1001      -1.720  -6.947  -3.661  1.00 27.96     0.000 C 
ENDBRANCH  21  22
ENDBRANCH  20  21
ENDBRANCH  19  20
ENDBRANCH   4  19
TORSDOF 6
ENDMDL
