MODEL 1
REMARK VINA RESULT:    -0.000      0.000      0.000
REMARK INTER + INTRA:          -1.663
REMARK INTER:                   0.000
REMARK INTRA:                  -1.663
REMARK UNBOUND:                -1.663
REMARK  6 active torsions:
REMARK  status: ('A' for Active; 'I' for Inactive)
REMARK    1  A    between atoms: C03_1  and  C10_8 
REMARK    2  A    between atoms: C04_2  and  C08_6 
REMARK    3  A    between atoms: C15_13  and  C18_16 
REMARK    4  A    between atoms: C18_16  and  C20_18 
REMARK    5  A    between atoms: C20_18  and  C21_19 
REMARK    6  A    between atoms: C21_19  and  C22_20 
ROOT
ATOM      1  C08 CBD B1001       0.529   1.497  -2.216  1.00 27.96     0.033 A 
ATOM      2  C11 CBD B1001      -0.016   1.101  -1.000  1.00 27.96     0.129 A 
ATOM      3  C12 CBD B1001       1.009   0.521  -3.102  1.00 27.96     0.129 A 
ATOM      4  C15 CBD B1001       0.444  -1.205  -1.492  1.00 27.96    -0.018 A 
ATOM      5  C16 CBD B1001      -0.048  -0.238  -0.626  1.00 27.96     0.023 A 
ATOM      6  C17 CBD B1001       0.975  -0.827  -2.727  1.00 27.96     0.023 A 
ATOM      7  O01 CBD B1001      -0.507   2.090  -0.135  1.00 27.96    -0.190 OA
ATOM      8  O02 CBD B1001       1.551   0.855  -4.352  1.00 27.96    -0.190 OA
ENDROOT
BRANCH   1   9
ATOM      9  C04 CBD B1001       0.457   3.019  -2.484  1.00 27.96     0.051 C 
ATOM     10  C07 CBD B1001      -0.648   3.169  -3.507  1.00 27.96    -0.030 C 
ATOM     11  C09 CBD B1001      -1.140   4.378  -3.617  1.00 27.96    -0.048 C 
ATOM     12  C06 CBD B1001      -0.194   5.579  -3.680  1.00 27.96     0.022 C 
ATOM     13  C13 CBD B1001      -2.523   4.602  -3.014  1.00 27.96     0.026 C 
ATOM     14  C05 CBD B1001       1.225   5.300  -3.142  1.00 27.96     0.009 C 
ATOM     15  C03 CBD B1001       1.632   3.818  -3.060  1.00 27.96     0.027 C 
BRANCH  15  16
ATOM     16  C10 CBD B1001       2.899   3.784  -2.197  1.00 27.96    -0.044 C 
ATOM     17  C19 CBD B1001       3.025   4.591  -1.142  1.00 27.96    -0.009 C 
ATOM     18  C14 CBD B1001       4.049   2.834  -2.585  1.00 27.96     0.026 C 
ENDBRANCH  15  16
ENDBRANCH   1   9
BRANCH   4  19
ATOM     19  C18 CBD B1001       0.399  -2.691  -1.057  1.00 27.96     0.026 C 
BRANCH  19  20
ATOM     20  C20 CBD B1001       1.234  -2.862   0.239  1.00 27.96     0.005 C 
BRANCH  20  21
ATOM     21  C21 CBD B1001       2.746  -2.664  -0.068  1.00 27.96     0.000 C 
BRANCH  21  22
ATOM     22  C22 CBD B1001       3.298  -1.511   0.804  1.00 27.96     0.000 C 
ATOM     23  C23 CBD B1001       3.701  -0.328  -0.109  1.00 27.96     0.000 C 
ENDBRANCH  21  22
ENDBRANCH  20  21
ENDBRANCH  19  20
ENDBRANCH   4  19
TORSDOF 6
ENDMDL
MODEL 2
REMARK VINA RESULT:    -0.000      4.182      8.429
REMARK INTER + INTRA:          -1.663
REMARK INTER:                   0.000
REMARK INTRA:                  -1.663
REMARK UNBOUND:                -1.663
REMARK  6 active torsions:
REMARK  status: ('A' for Active; 'I' for Inactive)
REMARK    1  A    between atoms: C03_1  and  C10_8 
REMARK    2  A    between atoms: C04_2  and  C08_6 
REMARK    3  A    between atoms: C15_13  and  C18_16 
REMARK    4  A    between atoms: C18_16  and  C20_18 
REMARK    5  A    between atoms: C20_18  and  C21_19 
REMARK    6  A    between atoms: C21_19  and  C22_20 
ROOT
ATOM      1  C08 CBD B1001       2.031  -4.165  -0.703  1.00 27.96     0.033 A 
ATOM      2  C11 CBD B1001       2.435  -3.831   0.585  1.00 27.96     0.129 A 
ATOM      3  C12 CBD B1001       2.059  -3.184  -1.705  1.00 27.96     0.129 A 
ATOM      4  C15 CBD B1001       2.829  -1.555  -0.079  1.00 27.96    -0.018 A 
ATOM      5  C16 CBD B1001       2.818  -2.534   0.907  1.00 27.96     0.023 A 
ATOM      6  C17 CBD B1001       2.447  -1.878  -1.383  1.00 27.96     0.023 A 
ATOM      7  O01 CBD B1001       2.418  -4.829   1.570  1.00 27.96    -0.190 OA
ATOM      8  O02 CBD B1001       1.684  -3.464  -3.028  1.00 27.96    -0.190 OA
ENDROOT
BRANCH   1   9
ATOM      9  C04 CBD B1001       1.668  -5.657  -0.892  1.00 27.96     0.051 C 
ATOM     10  C07 CBD B1001       2.840  -6.235  -1.656  1.00 27.96    -0.030 C 
ATOM     11  C09 CBD B1001       2.936  -7.541  -1.615  1.00 27.96    -0.048 C 
ATOM     12  C06 CBD B1001       1.688  -8.401  -1.829  1.00 27.96     0.022 C 
ATOM     13  C13 CBD B1001       4.039  -8.110  -0.728  1.00 27.96     0.026 C 
ATOM     14  C05 CBD B1001       0.355  -7.653  -1.610  1.00 27.96     0.009 C 
ATOM     15  C03 CBD B1001       0.429  -6.117  -1.671  1.00 27.96     0.027 C 
BRANCH  15  16
ATOM     16  C10 CBD B1001      -0.900  -5.616  -1.094  1.00 27.96    -0.044 C 
ATOM     17  C19 CBD B1001      -1.469  -6.237  -0.059  1.00 27.96    -0.009 C 
ATOM     18  C14 CBD B1001      -1.597  -4.407  -1.749  1.00 27.96     0.026 C 
ENDBRANCH  15  16
ENDBRANCH   1   9
BRANCH   4  19
ATOM     19  C18 CBD B1001       3.259  -0.117   0.300  1.00 27.96     0.026 C 
BRANCH  19  20
ATOM     20  C20 CBD B1001       2.293   0.428   1.386  1.00 27.96     0.005 C 
BRANCH  20  21
ATOM     21  C21 CBD B1001       0.882   0.665   0.776  1.00 27.96     0.000 C 
BRANCH  21  22
ATOM     22  C22 CBD B1001      -0.158  -0.173   1.557  1.00 27.96     0.000 C 
ATOM     23  C23 CBD B1001      -0.735  -1.266   0.625  1.00 27.96     0.000 C 
ENDBRANCH  21  22
ENDBRANCH  20  21
ENDBRANCH  19  20
ENDBRANCH   4  19
TORSDOF 6
ENDMDL
MODEL 3
REMARK VINA RESULT:    -0.000      5.101      7.765
REMARK INTER + INTRA:          -1.663
REMARK INTER:                   0.000
REMARK INTRA:                  -1.663
REMARK UNBOUND:                -1.663
REMARK  6 active torsions:
REMARK  status: ('A' for Active; 'I' for Inactive)
REMARK    1  A    between atoms: C03_1  and  C10_8 
REMARK    2  A    between atoms: C04_2  and  C08_6 
REMARK    3  A    between atoms: C15_13  and  C18_16 
REMARK    4  A    between atoms: C18_16  and  C20_18 
REMARK    5  A    between atoms: C20_18  and  C21_19 
REMARK    6  A    between atoms: C21_19  and  C22_20 
ROOT
ATOM      1  C08 CBD B1001       2.791  -3.184  -5.935  1.00 27.96     0.033 A 
ATOM      2  C11 CBD B1001       2.098  -2.748  -7.058  1.00 27.96     0.129 A 
ATOM      3  C12 CBD B1001       2.146  -4.022  -5.014  1.00 27.96     0.129 A 
ATOM      4  C15 CBD B1001       0.115  -3.899  -6.338  1.00 27.96    -0.018 A 
ATOM      5  C16 CBD B1001       0.764  -3.085  -7.258  1.00 27.96     0.023 A 
ATOM      6  C17 CBD B1001       0.803  -4.364  -5.215  1.00 27.96     0.023 A 
ATOM      7  O01 CBD B1001       2.766  -1.927  -7.978  1.00 27.96    -0.190 OA
ATOM      8  O02 CBD B1001       2.797  -4.512  -3.872  1.00 27.96    -0.190 OA
ENDROOT
BRANCH   1   9
ATOM      9  C04 CBD B1001       4.273  -2.741  -5.886  1.00 27.96     0.051 C 
ATOM     10  C07 CBD B1001       5.051  -3.994  -6.227  1.00 27.96    -0.030 C 
ATOM     11  C09 CBD B1001       6.289  -3.790  -6.605  1.00 27.96    -0.048 C 
ATOM     12  C06 CBD B1001       7.171  -2.815  -5.821  1.00 27.96     0.022 C 
ATOM     13  C13 CBD B1001       6.578  -3.959  -8.094  1.00 27.96     0.026 C 
ATOM     14  C05 CBD B1001       6.389  -1.814  -4.944  1.00 27.96     0.009 C 
ATOM     15  C03 CBD B1001       4.937  -2.204  -4.613  1.00 27.96     0.027 C 
BRANCH  15  16
ATOM     16  C10 CBD B1001       4.287  -0.935  -4.050  1.00 27.96    -0.044 C 
ATOM     17  C19 CBD B1001       4.578   0.263  -4.562  1.00 27.96    -0.009 C 
ATOM     18  C14 CBD B1001       3.320  -1.051  -2.856  1.00 27.96     0.026 C 
ENDBRANCH  15  16
ENDBRANCH   1   9
BRANCH   4  19
ATOM     19  C18 CBD B1001      -1.371  -4.263  -6.580  1.00 27.96     0.026 C 
BRANCH  19  20
ATOM     20  C20 CBD B1001      -2.210  -2.959  -6.613  1.00 27.96     0.005 C 
BRANCH  20  21
ATOM     21  C21 CBD B1001      -2.263  -2.320  -5.196  1.00 27.96     0.000 C 
BRANCH  21  22
ATOM     22  C22 CBD B1001      -1.691  -0.884  -5.262  1.00 27.96     0.000 C 
ATOM     23  C23 CBD B1001      -0.376  -0.822  -4.447  1.00 27.96     0.000 C 
ENDBRANCH  21  22
ENDBRANCH  20  21
ENDBRANCH  19  20
ENDBRANCH   4  19
TORSDOF 6
ENDMDL
MODEL 4
REMARK VINA RESULT:     0.000      2.856      4.790
REMARK INTER + INTRA:          -1.663
REMARK INTER:                   0.000
REMARK INTRA:                  -1.663
REMARK UNBOUND:                -1.663
REMARK  6 active torsions:
REMARK  status: ('A' for Active; 'I' for Inactive)
REMARK    1  A    between atoms: C03_1  and  C10_8 
REMARK    2  A    between atoms: C04_2  and  C08_6 
REMARK    3  A    between atoms: C15_13  and  C18_16 
REMARK    4  A    between atoms: C18_16  and  C20_18 
REMARK    5  A    between atoms: C20_18  and  C21_19 
REMARK    6  A    between atoms: C21_19  and  C22_20 
ROOT
ATOM      1  C08 CBD B1001       0.579  -1.026  -2.012  1.00 27.96     0.033 A 
ATOM      2  C11 CBD B1001       0.201  -1.522  -0.770  1.00 27.96     0.129 A 
ATOM      3  C12 CBD B1001      -0.326  -1.091  -3.081  1.00 27.96     0.129 A 
ATOM      4  C15 CBD B1001      -1.929  -2.211  -1.644  1.00 27.96    -0.018 A 
ATOM      5  C16 CBD B1001      -1.037  -2.127  -0.582  1.00 27.96     0.023 A 
ATOM      6  C17 CBD B1001      -1.574  -1.698  -2.893  1.00 27.96     0.023 A 
ATOM      7  O01 CBD B1001       1.112  -1.430   0.292  1.00 27.96    -0.190 OA
ATOM      8  O02 CBD B1001      -0.011  -0.589  -4.353  1.00 27.96    -0.190 OA
ENDROOT
BRANCH   1   9
ATOM      9  C04 CBD B1001       1.976  -0.360  -2.035  1.00 27.96     0.051 C 
ATOM     10  C07 CBD B1001       1.685   1.124  -2.096  1.00 27.96    -0.030 C 
ATOM     11  C09 CBD B1001       2.686   1.898  -1.759  1.00 27.96    -0.048 C 
ATOM     12  C06 CBD B1001       4.086   1.610  -2.306  1.00 27.96     0.022 C 
ATOM     13  C13 CBD B1001       2.589   2.571  -0.393  1.00 27.96     0.026 C 
ATOM     14  C05 CBD B1001       4.282   0.171  -2.828  1.00 27.96     0.009 C 
ATOM     15  C03 CBD B1001       2.993  -0.604  -3.157  1.00 27.96     0.027 C 
BRANCH  15  16
ATOM     16  C10 CBD B1001       3.420  -2.069  -3.313  1.00 27.96    -0.044 C 
ATOM     17  C19 CBD B1001       4.354  -2.593  -2.516  1.00 27.96    -0.009 C 
ATOM     18  C14 CBD B1001       2.787  -2.923  -4.429  1.00 27.96     0.026 C 
ENDBRANCH  15  16
ENDBRANCH   1   9
BRANCH   4  19
ATOM     19  C18 CBD B1001      -3.304  -2.887  -1.413  1.00 27.96     0.026 C 
BRANCH  19  20
ATOM     20  C20 CBD B1001      -3.074  -4.357  -0.974  1.00 27.96     0.005 C 
BRANCH  20  21
ATOM     21  C21 CBD B1001      -2.502  -5.187  -2.159  1.00 27.96     0.000 C 
BRANCH  21  22
ATOM     22  C22 CBD B1001      -1.144  -5.800  -1.744  1.00 27.96     0.000 C 
ATOM     23  C23 CBD B1001      -0.017  -5.164  -2.594  1.00 27.96     0.000 C 
ENDBRANCH  21  22
ENDBRANCH  20  21
ENDBRANCH  19  20
ENDBRANCH   4  19
TORSDOF 6
ENDMDL
MODEL 5
REMARK VINA RESULT:     0.000      3.056      3.608
REMARK INTER + INTRA:          -1.663
REMARK INTER:                   0.000
REMARK INTRA:                  -1.663
REMARK UNBOUND:                -1.663
REMARK  6 active torsions:
REMARK  status: ('A' for Active; 'I' for Inactive)
REMARK    1  A    between atoms: C03_1  and  C10_8 
REMARK    2  A    between atoms: C04_2  and  C08_6 
REMARK    3  A    between atoms: C15_13  and  C18_16 
REMARK    4  A    between atoms: C18_16  and  C20_18 
REMARK    5  A    between atoms: C20_18  and  C21_19 
REMARK    6  A    between atoms: C21_19  and  C22_20 
ROOT
ATOM      1  C08 CBD B1001       0.032   1.853   1.456  1.00 27.96     0.033 A 
ATOM      2  C11 CBD B1001      -0.170   1.465   2.775  1.00 27.96     0.129 A 
ATOM      3  C12 CBD B1001       0.225   0.871   0.474  1.00 27.96     0.129 A 
ATOM      4  C15 CBD B1001       0.077  -0.850   2.180  1.00 27.96    -0.018 A 
ATOM      5  C16 CBD B1001      -0.133   0.125   3.147  1.00 27.96     0.023 A 
ATOM      6  C17 CBD B1001       0.259  -0.479   0.846  1.00 27.96     0.023 A 
ATOM      7  O01 CBD B1001      -0.379   2.461   3.740  1.00 27.96    -0.190 OA
ATOM      8  O02 CBD B1001       0.412   1.197  -0.877  1.00 27.96    -0.190 OA
ENDROOT
BRANCH   1   9
ATOM      9  C04 CBD B1001      -0.071   3.378   1.216  1.00 27.96     0.051 C 
ATOM     10  C07 CBD B1001      -1.410   3.562   0.534  1.00 27.96    -0.030 C 
ATOM     11  C09 CBD B1001      -1.881   4.784   0.561  1.00 27.96    -0.048 C 
ATOM     12  C06 CBD B1001      -0.957   5.961   0.239  1.00 27.96     0.022 C 
ATOM     13  C13 CBD B1001      -3.039   5.041   1.520  1.00 27.96     0.026 C 
ATOM     14  C05 CBD B1001       0.548   5.642   0.368  1.00 27.96     0.009 C 
ATOM     15  C03 CBD B1001       0.922   4.149   0.338  1.00 27.96     0.027 C 
BRANCH  15  16
ATOM     16  C10 CBD B1001       2.376   4.078   0.820  1.00 27.96    -0.044 C 
ATOM     17  C19 CBD B1001       2.807   4.876   1.799  1.00 27.96    -0.009 C 
ATOM     18  C14 CBD B1001       3.350   3.101   0.134  1.00 27.96     0.026 C 
ENDBRANCH  15  16
ENDBRANCH   1   9
BRANCH   4  19
ATOM     19  C18 CBD B1001       0.113  -2.337   2.613  1.00 27.96     0.026 C 
BRANCH  19  20
ATOM     20  C20 CBD B1001       1.267  -2.536   3.632  1.00 27.96     0.005 C 
BRANCH  20  21
ATOM     21  C21 CBD B1001       2.641  -2.375   2.922  1.00 27.96     0.000 C 
BRANCH  21  22
ATOM     22  C22 CBD B1001       3.441  -1.242   3.607  1.00 27.96     0.000 C 
ATOM     23  C23 CBD B1001       3.610  -0.066   2.615  1.00 27.96     0.000 C 
ENDBRANCH  21  22
ENDBRANCH  20  21
ENDBRANCH  19  20
ENDBRANCH   4  19
TORSDOF 6
ENDMDL
MODEL 6
REMARK VINA RESULT:     0.000      3.024      4.402
REMARK INTER + INTRA:          -1.663
REMARK INTER:                   0.000
REMARK INTRA:                  -1.663
REMARK UNBOUND:                -1.663
REMARK  6 active torsions:
REMARK  status: ('A' for Active; 'I' for Inactive)
REMARK    1  A    between atoms: C03_1  and  C10_8 
REMARK    2  A    between atoms: C04_2  and  C08_6 
REMARK    3  A    between atoms: C15_13  and  C18_16 
REMARK    4  A    between atoms: C18_16  and  C20_18 
REMARK    5  A    between atoms: C20_18  and  C21_19 
REMARK    6  A    between atoms: C21_19  and  C22_20 
ROOT
ATOM      1  C08 CBD B1001      -2.097   1.488  -3.230  1.00 27.96     0.033 A 
ATOM      2  C11 CBD B1001      -3.043   1.746  -2.246  1.00 27.96     0.129 A 
ATOM      3  C12 CBD B1001      -0.990   0.684  -2.923  1.00 27.96     0.129 A 
ATOM      4  C15 CBD B1001      -1.781   0.485  -0.637  1.00 27.96    -0.018 A 
ATOM      5  C16 CBD B1001      -2.886   1.265  -0.950  1.00 27.96     0.023 A 
ATOM      6  C17 CBD B1001      -0.831   0.197  -1.620  1.00 27.96     0.023 A 
ATOM      7  O01 CBD B1001      -4.153   2.537  -2.577  1.00 27.96    -0.190 OA
ATOM      8  O02 CBD B1001      -0.011   0.370  -3.878  1.00 27.96    -0.190 OA
ENDROOT
BRANCH   1   9
ATOM      9  C04 CBD B1001      -2.444   2.074  -4.620  1.00 27.96     0.051 C 
ATOM     10  C07 CBD B1001      -2.877   0.875  -5.436  1.00 27.96    -0.030 C 
ATOM     11  C09 CBD B1001      -3.561   1.160  -6.517  1.00 27.96    -0.048 C 
ATOM     12  C06 CBD B1001      -3.087   2.285  -7.439  1.00 27.96     0.022 C 
ATOM     13  C13 CBD B1001      -5.059   0.878  -6.463  1.00 27.96     0.026 C 
ATOM     14  C05 CBD B1001      -2.116   3.286  -6.776  1.00 27.96     0.009 C 
ATOM     15  C03 CBD B1001      -1.413   2.792  -5.499  1.00 27.96     0.027 C 
BRANCH  15  16
ATOM     16  C10 CBD B1001      -0.797   4.041  -4.857  1.00 27.96    -0.044 C 
ATOM     17  C19 CBD B1001      -1.447   5.206  -4.877  1.00 27.96    -0.009 C 
ATOM     18  C14 CBD B1001       0.603   3.947  -4.219  1.00 27.96     0.026 C 
ENDBRANCH  15  16
ENDBRANCH   1   9
BRANCH   4  19
ATOM     19  C18 CBD B1001      -1.625  -0.043   0.811  1.00 27.96     0.026 C 
BRANCH  19  20
ATOM     20  C20 CBD B1001      -1.543   1.166   1.781  1.00 27.96     0.005 C 
BRANCH  20  21
ATOM     21  C21 CBD B1001      -0.204   1.930   1.572  1.00 27.96     0.000 C 
BRANCH  21  22
ATOM     22  C22 CBD B1001      -0.508   3.401   1.202  1.00 27.96     0.000 C 
ATOM     23  C23 CBD B1001      -0.047   3.667  -0.252  1.00 27.96     0.000 C 
ENDBRANCH  21  22
ENDBRANCH  20  21
ENDBRANCH  19  20
ENDBRANCH   4  19
TORSDOF 6
ENDMDL
MODEL 7
REMARK VINA RESULT:     0.000      6.986     10.136
REMARK INTER + INTRA:          -1.663
REMARK INTER:                   0.000
REMARK INTRA:                  -1.663
REMARK UNBOUND:                -1.663
REMARK  6 active torsions:
REMARK  status: ('A' for Active; 'I' for Inactive)
REMARK    1  A    between atoms: C03_1  and  C10_8 
REMARK    2  A    between atoms: C04_2  and  C08_6 
REMARK    3  A    between atoms: C15_13  and  C18_16 
REMARK    4  A    between atoms: C18_16  and  C20_18 
REMARK    5  A    between atoms: C20_18  and  C21_19 
REMARK    6  A    between atoms: C21_19  and  C22_20 
ROOT
ATOM      1  C08 CBD B1001       3.485  -6.002  -4.460  1.00 27.96     0.033 A 
ATOM      2  C11 CBD B1001       3.439  -6.115  -3.075  1.00 27.96     0.129 A 
ATOM      3  C12 CBD B1001       2.478  -5.285  -5.122  1.00 27.96     0.129 A 
ATOM      4  C15 CBD B1001       1.379  -4.881  -2.996  1.00 27.96    -0.018 A 
ATOM      5  C16 CBD B1001       2.389  -5.575  -2.341  1.00 27.96     0.023 A 
ATOM      6  C17 CBD B1001       1.421  -4.738  -4.384  1.00 27.96     0.023 A 
ATOM      7  O01 CBD B1001       4.465  -6.820  -2.429  1.00 27.96    -0.190 OA
ATOM      8  O02 CBD B1001       2.479  -5.117  -6.515  1.00 27.96    -0.190 OA
ENDROOT
BRANCH   1   9
ATOM      9  C04 CBD B1001       4.737  -6.635  -5.112  1.00 27.96     0.051 C 
ATOM     10  C07 CBD B1001       5.600  -5.452  -5.494  1.00 27.96    -0.030 C 
ATOM     11  C09 CBD B1001       6.858  -5.737  -5.724  1.00 27.96    -0.048 C 
ATOM     12  C06 CBD B1001       7.215  -6.953  -6.583  1.00 27.96     0.022 C 
ATOM     13  C13 CBD B1001       7.855  -5.319  -4.647  1.00 27.96     0.026 C 
ATOM     14  C05 CBD B1001       6.085  -7.996  -6.712  1.00 27.96     0.009 C 
ATOM     15  C03 CBD B1001       4.668  -7.493  -6.381  1.00 27.96     0.027 C 
BRANCH  15  16
ATOM     16  C10 CBD B1001       3.804  -8.752  -6.244  1.00 27.96    -0.044 C 
ATOM     17  C19 CBD B1001       4.294  -9.853  -5.672  1.00 27.96    -0.009 C 
ATOM     18  C14 CBD B1001       2.371  -8.747  -6.813  1.00 27.96     0.026 C 
ENDBRANCH  15  16
ENDBRANCH   1   9
BRANCH   4  19
ATOM     19  C18 CBD B1001       0.219  -4.285  -2.160  1.00 27.96     0.026 C 
BRANCH  19  20
ATOM     20  C20 CBD B1001      -0.510  -5.437  -1.419  1.00 27.96     0.005 C 
BRANCH  20  21
ATOM     21  C21 CBD B1001      -1.274  -6.330  -2.438  1.00 27.96     0.000 C 
BRANCH  21  22
ATOM     22  C22 CBD B1001      -0.766  -7.787  -2.322  1.00 27.96     0.000 C 
ATOM     23  C23 CBD B1001      -0.037  -8.178  -3.630  1.00 27.96     0.000 C 
ENDBRANCH  21  22
ENDBRANCH  20  21
ENDBRANCH  19  20
ENDBRANCH   4  19
TORSDOF 6
ENDMDL
MODEL 8
REMARK VINA RESULT:     0.000      5.654      6.753
REMARK INTER + INTRA:          -1.663
REMARK INTER:                   0.000
REMARK INTRA:                  -1.663
REMARK UNBOUND:                -1.663
REMARK  6 active torsions:
REMARK  status: ('A' for Active; 'I' for Inactive)
REMARK    1  A    between atoms: C03_1  and  C10_8 
REMARK    2  A    between atoms: C04_2  and  C08_6 
REMARK    3  A    between atoms: C15_13  and  C18_16 
REMARK    4  A    between atoms: C18_16  and  C20_18 
REMARK    5  A    between atoms: C20_18  and  C21_19 
REMARK    6  A    between atoms: C21_19  and  C22_20 
ROOT
ATOM      1  C08 CBD B1001       2.551  -4.096  -3.640  1.00 27.96     0.033 A 
ATOM      2  C11 CBD B1001       1.736  -3.287  -2.857  1.00 27.96     0.129 A 
ATOM      3  C12 CBD B1001       2.366  -5.486  -3.612  1.00 27.96     0.129 A 
ATOM      4  C15 CBD B1001       0.604  -5.210  -1.966  1.00 27.96    -0.018 A 
ATOM      5  C16 CBD B1001       0.777  -3.832  -2.010  1.00 27.96     0.023 A 
ATOM      6  C17 CBD B1001       1.399  -6.037  -2.762  1.00 27.96     0.023 A 
ATOM      7  O01 CBD B1001       1.923  -1.898  -2.912  1.00 27.96    -0.190 OA
ATOM      8  O02 CBD B1001       3.142  -6.354  -4.395  1.00 27.96    -0.190 OA
ENDROOT
BRANCH   1   9
ATOM      9  C04 CBD B1001       3.541  -3.323  -4.543  1.00 27.96     0.051 C 
ATOM     10  C07 CBD B1001       2.952  -3.438  -5.932  1.00 27.96    -0.030 C 
ATOM     11  C09 CBD B1001       3.406  -2.567  -6.799  1.00 27.96    -0.048 C 
ATOM     12  C06 CBD B1001       4.909  -2.292  -6.883  1.00 27.96     0.022 C 
ATOM     13  C13 CBD B1001       2.461  -1.429  -7.172  1.00 27.96     0.026 C 
ATOM     14  C05 CBD B1001       5.704  -2.716  -5.629  1.00 27.96     0.009 C 
ATOM     15  C03 CBD B1001       5.010  -3.734  -4.707  1.00 27.96     0.027 C 
BRANCH  15  16
ATOM     16  C10 CBD B1001       5.815  -3.726  -3.402  1.00 27.96    -0.044 C 
ATOM     17  C19 CBD B1001       6.314  -2.587  -2.918  1.00 27.96    -0.009 C 
ATOM     18  C14 CBD B1001       6.080  -5.058  -2.673  1.00 27.96     0.026 C 
ENDBRANCH  15  16
ENDBRANCH   1   9
BRANCH   4  19
ATOM     19  C18 CBD B1001      -0.470  -5.798  -1.017  1.00 27.96     0.026 C 
BRANCH  19  20
ATOM     20  C20 CBD B1001      -0.128  -5.395   0.442  1.00 27.96     0.005 C 
BRANCH  20  21
ATOM     21  C21 CBD B1001       1.156  -6.135   0.915  1.00 27.96     0.000 C 
BRANCH  21  22
ATOM     22  C22 CBD B1001       2.220  -5.093   1.333  1.00 27.96     0.000 C 
ATOM     23  C23 CBD B1001       3.416  -5.165   0.352  1.00 27.96     0.000 C 
ENDBRANCH  21  22
ENDBRANCH  20  21
ENDBRANCH  19  20
ENDBRANCH   4  19
TORSDOF 6
ENDMDL
MODEL 9
REMARK VINA RESULT:     0.000      3.114      4.065
REMARK INTER + INTRA:          -1.663
REMARK INTER:                   0.000
REMARK INTRA:                  -1.663
REMARK UNBOUND:                -1.663
REMARK  6 active torsions:
REMARK  status: ('A' for Active; 'I' for Inactive)
REMARK    1  A    between atoms: C03_1  and  C10_8 
REMARK    2  A    between atoms: C04_2  and  C08_6 
REMARK    3  A    between atoms: C15_13  and  C18_16 
REMARK    4  A    between atoms: C18_16  and  C20_18 
REMARK    5  A    between atoms: C20_18  and  C21_19 
REMARK    6  A    between atoms: C21_19  and  C22_20 
ROOT
ATOM      1  C08 CBD B1001      -1.266   1.674   0.639  1.00 27.96     0.033 A 
ATOM      2  C11 CBD B1001      -1.170   0.989   1.845  1.00 27.96     0.129 A 
ATOM      3  C12 CBD B1001      -0.496   1.249  -0.453  1.00 27.96     0.129 A 
ATOM      4  C15 CBD B1001       0.490  -0.486   0.928  1.00 27.96    -0.018 A 
ATOM      5  C16 CBD B1001      -0.288  -0.075   2.003  1.00 27.96     0.023 A 
ATOM      6  C17 CBD B1001       0.390   0.176  -0.297  1.00 27.96     0.023 A 
ATOM      7  O01 CBD B1001      -1.961   1.417   2.921  1.00 27.96    -0.190 OA
ATOM      8  O02 CBD B1001      -0.564   1.885  -1.702  1.00 27.96    -0.190 OA
ENDROOT
BRANCH   1   9
ATOM      9  C04 CBD B1001      -2.316   2.810   0.631  1.00 27.96     0.051 C 
ATOM     10  C07 CBD B1001      -3.468   2.252  -0.175  1.00 27.96    -0.030 C 
ATOM     11  C09 CBD B1001      -4.609   2.876  -0.015  1.00 27.96    -0.048 C 
ATOM     12  C06 CBD B1001      -4.645   4.406  -0.029  1.00 27.96     0.022 C 
ATOM     13  C13 CBD B1001      -5.663   2.155   0.819  1.00 27.96     0.026 C 
ATOM     14  C05 CBD B1001      -3.280   5.077   0.236  1.00 27.96     0.009 C 
ATOM     15  C03 CBD B1001      -2.042   4.189   0.018  1.00 27.96     0.027 C 
BRANCH  15  16
ATOM     16  C10 CBD B1001      -0.873   4.944   0.662  1.00 27.96    -0.044 C 
ATOM     17  C19 CBD B1001      -1.045   5.618   1.800  1.00 27.96    -0.009 C 
ATOM     18  C14 CBD B1001       0.497   4.951  -0.043  1.00 27.96     0.026 C 
ENDBRANCH  15  16
ENDBRANCH   1   9
BRANCH   4  19
ATOM     19  C18 CBD B1001       1.465  -1.674   1.123  1.00 27.96     0.026 C 
BRANCH  19  20
ATOM     20  C20 CBD B1001       2.485  -1.311   2.234  1.00 27.96     0.005 C 
BRANCH  20  21
ATOM     21  C21 CBD B1001       3.442  -0.190   1.736  1.00 27.96     0.000 C 
BRANCH  21  22
ATOM     22  C22 CBD B1001       3.342   1.027   2.687  1.00 27.96     0.000 C 
ATOM     23  C23 CBD B1001       2.719   2.221   1.923  1.00 27.96     0.000 C 
ENDBRANCH  21  22
ENDBRANCH  20  21
ENDBRANCH  19  20
ENDBRANCH   4  19
TORSDOF 6
ENDMDL
