MODEL 1
REMARK VINA RESULT:     0.000      0.000      0.000
REMARK INTER + INTRA:          -1.663
REMARK INTER:                   0.000
REMARK INTRA:                  -1.663
REMARK UNBOUND:                -1.663
REMARK  6 active torsions:
REMARK  status: ('A' for Active; 'I' for Inactive)
REMARK    1  A    between atoms: C03_1  and  C10_8 
REMARK    2  A    between atoms: C04_2  and  C08_6 
REMARK    3  A    between atoms: C15_13  and  C18_16 
REMARK    4  A    between atoms: C18_16  and  C20_18 
REMARK    5  A    between atoms: C20_18  and  C21_19 
REMARK    6  A    between atoms: C21_19  and  C22_20 
ROOT
ATOM      1  C08 CBD B1001       5.222   3.696   1.542  1.00 27.96     0.033 A 
ATOM      2  C11 CBD B1001       5.948   2.595   1.102  1.00 27.96     0.129 A 
ATOM      3  C12 CBD B1001       3.882   3.527   1.918  1.00 27.96     0.129 A 
ATOM      4  C15 CBD B1001       4.022   1.176   1.334  1.00 27.96    -0.018 A 
ATOM      5  C16 CBD B1001       5.355   1.342   0.980  1.00 27.96     0.023 A 
ATOM      6  C17 CBD B1001       3.284   2.267   1.798  1.00 27.96     0.023 A 
ATOM      7  O01 CBD B1001       7.292   2.778   0.748  1.00 27.96    -0.190 OA
ATOM      8  O02 CBD B1001       3.103   4.595   2.389  1.00 27.96    -0.190 OA
ENDROOT
BRANCH   1   9
ATOM      9  C04 CBD B1001       6.044   5.003   1.645  1.00 27.96     0.051 C 
ATOM     10  C07 CBD B1001       6.263   5.193   3.130  1.00 27.96    -0.030 C 
ATOM     11  C09 CBD B1001       7.231   6.017   3.445  1.00 27.96    -0.048 C 
ATOM     12  C06 CBD B1001       7.353   7.357   2.716  1.00 27.96     0.022 C 
ATOM     13  C13 CBD B1001       8.514   5.384   3.973  1.00 27.96     0.026 C 
ATOM     14  C05 CBD B1001       6.613   7.416   1.363  1.00 27.96     0.009 C 
ATOM     15  C03 CBD B1001       5.516   6.356   1.152  1.00 27.96     0.027 C 
BRANCH  15  16
ATOM     16  C10 CBD B1001       5.185   6.396  -0.344  1.00 27.96    -0.044 C 
ATOM     17  C19 CBD B1001       6.149   6.578  -1.249  1.00 27.96    -0.009 C 
ATOM     18  C14 CBD B1001       3.717   6.264  -0.794  1.00 27.96     0.026 C 
ENDBRANCH  15  16
ENDBRANCH   1   9
BRANCH   4  19
ATOM     19  C18 CBD B1001       3.381  -0.227   1.192  1.00 27.96     0.026 C 
BRANCH  19  20
ATOM     20  C20 CBD B1001       3.454  -0.666  -0.295  1.00 27.96     0.005 C 
BRANCH  20  21
ATOM     21  C21 CBD B1001       2.501   0.210  -1.158  1.00 27.96     0.000 C 
BRANCH  21  22
ATOM     22  C22 CBD B1001       3.321   0.916  -2.264  1.00 27.96     0.000 C 
ATOM     23  C23 CBD B1001       3.312   2.443  -2.009  1.00 27.96     0.000 C 
ENDBRANCH  21  22
ENDBRANCH  20  21
ENDBRANCH  19  20
ENDBRANCH   4  19
TORSDOF 6
ENDMDL
MODEL 2
REMARK VINA RESULT:     0.000      3.528      5.552
REMARK INTER + INTRA:          -1.663
REMARK INTER:                   0.000
REMARK INTRA:                  -1.663
REMARK UNBOUND:                -1.663
REMARK  6 active torsions:
REMARK  status: ('A' for Active; 'I' for Inactive)
REMARK    1  A    between atoms: C03_1  and  C10_8 
REMARK    2  A    between atoms: C04_2  and  C08_6 
REMARK    3  A    between atoms: C15_13  and  C18_16 
REMARK    4  A    between atoms: C18_16  and  C20_18 
REMARK    5  A    between atoms: C20_18  and  C21_19 
REMARK    6  A    between atoms: C21_19  and  C22_20 
ROOT
ATOM      1  C08 CBD B1001       1.278   0.990   3.193  1.00 27.96     0.033 A 
ATOM      2  C11 CBD B1001       1.439  -0.351   3.518  1.00 27.96     0.129 A 
ATOM      3  C12 CBD B1001       0.681   1.333   1.971  1.00 27.96     0.129 A 
ATOM      4  C15 CBD B1001       0.493  -1.022   1.413  1.00 27.96    -0.018 A 
ATOM      5  C16 CBD B1001       1.067  -1.357   2.633  1.00 27.96     0.023 A 
ATOM      6  C17 CBD B1001       0.303   0.321   1.080  1.00 27.96     0.023 A 
ATOM      7  O01 CBD B1001       2.022  -0.675   4.752  1.00 27.96    -0.190 OA
ATOM      8  O02 CBD B1001       0.471   2.669   1.596  1.00 27.96    -0.190 OA
ENDROOT
BRANCH   1   9
ATOM      9  C04 CBD B1001       1.719   1.974   4.304  1.00 27.96     0.051 C 
ATOM     10  C07 CBD B1001       0.420   2.483   4.891  1.00 27.96    -0.030 C 
ATOM     11  C09 CBD B1001       0.529   3.038   6.073  1.00 27.96    -0.048 C 
ATOM     12  C06 CBD B1001       1.658   4.034   6.343  1.00 27.96     0.022 C 
ATOM     13  C13 CBD B1001       0.015   2.220   7.254  1.00 27.96     0.026 C 
ATOM     14  C05 CBD B1001       2.838   3.943   5.351  1.00 27.96     0.009 C 
ATOM     15  C03 CBD B1001       2.538   3.237   4.016  1.00 27.96     0.027 C 
BRANCH  15  16
ATOM     16  C10 CBD B1001       3.905   2.970   3.374  1.00 27.96    -0.044 C 
ATOM     17  C19 CBD B1001       4.949   2.609   4.124  1.00 27.96    -0.009 C 
ATOM     18  C14 CBD B1001       4.073   3.161   1.854  1.00 27.96     0.026 C 
ENDBRANCH  15  16
ENDBRANCH   1   9
BRANCH   4  19
ATOM     19  C18 CBD B1001       0.083  -2.157   0.442  1.00 27.96     0.026 C 
BRANCH  19  20
ATOM     20  C20 CBD B1001       1.344  -2.981   0.071  1.00 27.96     0.005 C 
BRANCH  20  21
ATOM     21  C21 CBD B1001       2.298  -2.129  -0.815  1.00 27.96     0.000 C 
BRANCH  21  22
ATOM     22  C22 CBD B1001       3.678  -2.022  -0.123  1.00 27.96     0.000 C 
ATOM     23  C23 CBD B1001       3.928  -0.551   0.290  1.00 27.96     0.000 C 
ENDBRANCH  21  22
ENDBRANCH  20  21
ENDBRANCH  19  20
ENDBRANCH   4  19
TORSDOF 6
ENDMDL
MODEL 3
REMARK VINA RESULT:     0.000      3.619      5.951
REMARK INTER + INTRA:          -1.663
REMARK INTER:                   0.000
REMARK INTRA:                  -1.663
REMARK UNBOUND:                -1.663
REMARK  6 active torsions:
REMARK  status: ('A' for Active; 'I' for Inactive)
REMARK    1  A    between atoms: C03_1  and  C10_8 
REMARK    2  A    between atoms: C04_2  and  C08_6 
REMARK    3  A    between atoms: C15_13  and  C18_16 
REMARK    4  A    between atoms: C18_16  and  C20_18 
REMARK    5  A    between atoms: C20_18  and  C21_19 
REMARK    6  A    between atoms: C21_19  and  C22_20 
ROOT
ATOM      1  C08 CBD B1001       5.911   1.263  -2.722  1.00 27.96     0.033 A 
ATOM      2  C11 CBD B1001       4.754   0.530  -2.487  1.00 27.96     0.129 A 
ATOM      3  C12 CBD B1001       6.564   1.135  -3.956  1.00 27.96     0.129 A 
ATOM      4  C15 CBD B1001       4.917  -0.508  -4.648  1.00 27.96    -0.018 A 
ATOM      5  C16 CBD B1001       4.262  -0.364  -3.432  1.00 27.96     0.023 A 
ATOM      6  C17 CBD B1001       6.069   0.237  -4.910  1.00 27.96     0.023 A 
ATOM      7  O01 CBD B1001       4.104   0.685  -1.254  1.00 27.96    -0.190 OA
ATOM      8  O02 CBD B1001       7.724   1.864  -4.262  1.00 27.96    -0.190 OA
ENDROOT
BRANCH   1   9
ATOM      9  C04 CBD B1001       6.299   2.230  -1.578  1.00 27.96     0.051 C 
ATOM     10  C07 CBD B1001       5.930   3.600  -2.102  1.00 27.96    -0.030 C 
ATOM     11  C09 CBD B1001       5.822   4.532  -1.187  1.00 27.96    -0.048 C 
ATOM     12  C06 CBD B1001       6.890   4.652  -0.098  1.00 27.96     0.022 C 
ATOM     13  C13 CBD B1001       4.405   4.973  -0.835  1.00 27.96     0.026 C 
ATOM     14  C05 CBD B1001       7.744   3.381   0.100  1.00 27.96     0.009 C 
ATOM     15  C03 CBD B1001       7.738   2.381  -1.071  1.00 27.96     0.027 C 
BRANCH  15  16
ATOM     16  C10 CBD B1001       8.349   1.090  -0.514  1.00 27.96    -0.044 C 
ATOM     17  C19 CBD B1001       8.080   0.692   0.731  1.00 27.96    -0.009 C 
ATOM     18  C14 CBD B1001       9.313   0.271  -1.396  1.00 27.96     0.026 C 
ENDBRANCH  15  16
ENDBRANCH   1   9
BRANCH   4  19
ATOM     19  C18 CBD B1001       4.353  -1.508  -5.688  1.00 27.96     0.026 C 
BRANCH  19  20
ATOM     20  C20 CBD B1001       4.353  -2.931  -5.069  1.00 27.96     0.005 C 
BRANCH  20  21
ATOM     21  C21 CBD B1001       5.814  -3.438  -4.896  1.00 27.96     0.000 C 
BRANCH  21  22
ATOM     22  C22 CBD B1001       6.065  -3.771  -3.406  1.00 27.96     0.000 C 
ATOM     23  C23 CBD B1001       7.110  -2.783  -2.832  1.00 27.96     0.000 C 
ENDBRANCH  21  22
ENDBRANCH  20  21
ENDBRANCH  19  20
ENDBRANCH   4  19
TORSDOF 6
ENDMDL
MODEL 4
REMARK VINA RESULT:     0.000      8.248     10.564
REMARK INTER + INTRA:          -1.663
REMARK INTER:                   0.000
REMARK INTRA:                  -1.663
REMARK UNBOUND:                -1.663
REMARK  6 active torsions:
REMARK  status: ('A' for Active; 'I' for Inactive)
REMARK    1  A    between atoms: C03_1  and  C10_8 
REMARK    2  A    between atoms: C04_2  and  C08_6 
REMARK    3  A    between atoms: C15_13  and  C18_16 
REMARK    4  A    between atoms: C18_16  and  C20_18 
REMARK    5  A    between atoms: C20_18  and  C21_19 
REMARK    6  A    between atoms: C21_19  and  C22_20 
ROOT
ATOM      1  C08 CBD B1001      -4.683   0.940   3.954  1.00 27.96     0.033 A 
ATOM      2  C11 CBD B1001      -4.467  -0.184   4.743  1.00 27.96     0.129 A 
ATOM      3  C12 CBD B1001      -4.929   0.778   2.583  1.00 27.96     0.129 A 
ATOM      4  C15 CBD B1001      -4.663  -1.622   2.827  1.00 27.96    -0.018 A 
ATOM      5  C16 CBD B1001      -4.439  -1.460   4.189  1.00 27.96     0.023 A 
ATOM      6  C17 CBD B1001      -4.904  -0.506   2.024  1.00 27.96     0.023 A 
ATOM      7  O01 CBD B1001      -4.241  -0.004   6.115  1.00 27.96    -0.190 OA
ATOM      8  O02 CBD B1001      -5.176   1.871   1.738  1.00 27.96    -0.190 OA
ENDROOT
BRANCH   1   9
ATOM      9  C04 CBD B1001      -4.710   2.274   4.737  1.00 27.96     0.051 C 
ATOM     10  C07 CBD B1001      -6.175   2.651   4.786  1.00 27.96    -0.030 C 
ATOM     11  C09 CBD B1001      -6.487   3.538   5.699  1.00 27.96    -0.048 C 
ATOM     12  C06 CBD B1001      -5.614   4.782   5.879  1.00 27.96     0.022 C 
ATOM     13  C13 CBD B1001      -7.226   3.013   6.926  1.00 27.96     0.026 C 
ATOM     14  C05 CBD B1001      -4.192   4.651   5.292  1.00 27.96     0.009 C 
ATOM     15  C03 CBD B1001      -3.998   3.540   4.245  1.00 27.96     0.027 C 
BRANCH  15  16
ATOM     16  C10 CBD B1001      -2.481   3.386   4.082  1.00 27.96    -0.044 C 
ATOM     17  C19 CBD B1001      -1.670   3.485   5.137  1.00 27.96    -0.009 C 
ATOM     18  C14 CBD B1001      -1.895   3.155   2.675  1.00 27.96     0.026 C 
ENDBRANCH  15  16
ENDBRANCH   1   9
BRANCH   4  19
ATOM     19  C18 CBD B1001      -4.630  -3.051   2.230  1.00 27.96     0.026 C 
BRANCH  19  20
ATOM     20  C20 CBD B1001      -3.227  -3.666   2.475  1.00 27.96     0.005 C 
BRANCH  20  21
ATOM     21  C21 CBD B1001      -2.162  -2.932   1.611  1.00 27.96     0.000 C 
BRANCH  21  22
ATOM     22  C22 CBD B1001      -1.071  -2.343   2.536  1.00 27.96     0.000 C 
ATOM     23  C23 CBD B1001      -1.131  -0.798   2.476  1.00 27.96     0.000 C 
ENDBRANCH  21  22
ENDBRANCH  20  21
ENDBRANCH  19  20
ENDBRANCH   4  19
TORSDOF 6
ENDMDL
MODEL 5
REMARK VINA RESULT:     0.000     10.804     14.190
REMARK INTER + INTRA:          -1.663
REMARK INTER:                   0.000
REMARK INTRA:                  -1.663
REMARK UNBOUND:                -1.663
REMARK  6 active torsions:
REMARK  status: ('A' for Active; 'I' for Inactive)
REMARK    1  A    between atoms: C03_1  and  C10_8 
REMARK    2  A    between atoms: C04_2  and  C08_6 
REMARK    3  A    between atoms: C15_13  and  C18_16 
REMARK    4  A    between atoms: C18_16  and  C20_18 
REMARK    5  A    between atoms: C20_18  and  C21_19 
REMARK    6  A    between atoms: C21_19  and  C22_20 
ROOT
ATOM      1  C08 CBD B1001      -2.854  -5.462   4.610  1.00 27.96     0.033 A 
ATOM      2  C11 CBD B1001      -1.948  -5.183   3.594  1.00 27.96     0.129 A 
ATOM      3  C12 CBD B1001      -2.435  -5.376   5.946  1.00 27.96     0.129 A 
ATOM      4  C15 CBD B1001      -0.198  -4.803   5.196  1.00 27.96    -0.018 A 
ATOM      5  C16 CBD B1001      -0.623  -4.871   3.875  1.00 27.96     0.023 A 
ATOM      6  C17 CBD B1001      -1.101  -5.059   6.231  1.00 27.96     0.023 A 
ATOM      7  O01 CBD B1001      -2.391  -5.256   2.265  1.00 27.96    -0.190 OA
ATOM      8  O02 CBD B1001      -3.307  -5.624   7.016  1.00 27.96    -0.190 OA
ENDROOT
BRANCH   1   9
ATOM      9  C04 CBD B1001      -4.292  -5.761   4.121  1.00 27.96     0.051 C 
ATOM     10  C07 CBD B1001      -5.072  -4.509   4.459  1.00 27.96    -0.030 C 
ATOM     11  C09 CBD B1001      -6.208  -4.376   3.820  1.00 27.96    -0.048 C 
ATOM     12  C06 CBD B1001      -7.154  -5.573   3.698  1.00 27.96     0.022 C 
ATOM     13  C13 CBD B1001      -6.238  -3.339   2.701  1.00 27.96     0.026 C 
ATOM     14  C05 CBD B1001      -6.481  -6.943   3.932  1.00 27.96     0.009 C 
ATOM     15  C03 CBD B1001      -5.137  -6.910   4.682  1.00 27.96     0.027 C 
BRANCH  15  16
ATOM     16  C10 CBD B1001      -4.521  -8.300   4.485  1.00 27.96    -0.044 C 
ATOM     17  C19 CBD B1001      -4.643  -8.939   3.320  1.00 27.96    -0.009 C 
ATOM     18  C14 CBD B1001      -3.790  -8.973   5.663  1.00 27.96     0.026 C 
ENDBRANCH  15  16
ENDBRANCH   1   9
BRANCH   4  19
ATOM     19  C18 CBD B1001       1.282  -4.452   5.489  1.00 27.96     0.026 C 
BRANCH  19  20
ATOM     20  C20 CBD B1001       2.192  -5.526   4.836  1.00 27.96     0.005 C 
BRANCH  20  21
ATOM     21  C21 CBD B1001       2.032  -6.885   5.577  1.00 27.96     0.000 C 
BRANCH  21  22
ATOM     22  C22 CBD B1001       1.570  -7.964   4.569  1.00 27.96     0.000 C 
ATOM     23  C23 CBD B1001       0.137  -8.423   4.935  1.00 27.96     0.000 C 
ENDBRANCH  21  22
ENDBRANCH  20  21
ENDBRANCH  19  20
ENDBRANCH   4  19
TORSDOF 6
ENDMDL
MODEL 6
REMARK VINA RESULT:     0.000      6.683     10.384
REMARK INTER + INTRA:          -1.663
REMARK INTER:                   0.000
REMARK INTRA:                  -1.663
REMARK UNBOUND:                -1.663
REMARK  6 active torsions:
REMARK  status: ('A' for Active; 'I' for Inactive)
REMARK    1  A    between atoms: C03_1  and  C10_8 
REMARK    2  A    between atoms: C04_2  and  C08_6 
REMARK    3  A    between atoms: C15_13  and  C18_16 
REMARK    4  A    between atoms: C18_16  and  C20_18 
REMARK    5  A    between atoms: C20_18  and  C21_19 
REMARK    6  A    between atoms: C21_19  and  C22_20 
ROOT
ATOM      1  C08 CBD B1001       1.522  -4.283   3.813  1.00 27.96     0.033 A 
ATOM      2  C11 CBD B1001       0.290  -3.783   3.410  1.00 27.96     0.129 A 
ATOM      3  C12 CBD B1001       2.099  -3.809   5.000  1.00 27.96     0.129 A 
ATOM      4  C15 CBD B1001       0.222  -2.300   5.300  1.00 27.96    -0.018 A 
ATOM      5  C16 CBD B1001      -0.356  -2.786   4.134  1.00 27.96     0.023 A 
ATOM      6  C17 CBD B1001       1.450  -2.807   5.731  1.00 27.96     0.023 A 
ATOM      7  O01 CBD B1001      -0.281  -4.282   2.230  1.00 27.96    -0.190 OA
ATOM      8  O02 CBD B1001       3.331  -4.289   5.471  1.00 27.96    -0.190 OA
ENDROOT
BRANCH   1   9
ATOM      9  C04 CBD B1001       2.083  -5.407   2.909  1.00 27.96     0.051 C 
ATOM     10  C07 CBD B1001       1.876  -6.673   3.711  1.00 27.96    -0.030 C 
ATOM     11  C09 CBD B1001       1.932  -7.783   3.016  1.00 27.96    -0.048 C 
ATOM     12  C06 CBD B1001       3.052  -7.981   1.992  1.00 27.96     0.022 C 
ATOM     13  C13 CBD B1001       0.602  -8.480   2.749  1.00 27.96     0.026 C 
ATOM     14  C05 CBD B1001       3.737  -6.675   1.538  1.00 27.96     0.009 C 
ATOM     15  C03 CBD B1001       3.550  -5.461   2.465  1.00 27.96     0.027 C 
BRANCH  15  16
ATOM     16  C10 CBD B1001       4.008  -4.245   1.652  1.00 27.96    -0.044 C 
ATOM     17  C19 CBD B1001       3.742  -4.161   0.347  1.00 27.96    -0.009 C 
ATOM     18  C14 CBD B1001       4.816  -3.134   2.349  1.00 27.96     0.026 C 
ENDBRANCH  15  16
ENDBRANCH   1   9
BRANCH   4  19
ATOM     19  C18 CBD B1001      -0.513  -1.191   6.092  1.00 27.96     0.026 C 
BRANCH  19  20
ATOM     20  C20 CBD B1001      -0.674   0.056   5.182  1.00 27.96     0.005 C 
BRANCH  20  21
ATOM     21  C21 CBD B1001       0.712   0.712   4.923  1.00 27.96     0.000 C 
BRANCH  21  22
ATOM     22  C22 CBD B1001       0.980   0.753   3.399  1.00 27.96     0.000 C 
ATOM     23  C23 CBD B1001       2.171  -0.179   3.066  1.00 27.96     0.000 C 
ENDBRANCH  21  22
ENDBRANCH  20  21
ENDBRANCH  19  20
ENDBRANCH   4  19
TORSDOF 6
ENDMDL
MODEL 7
REMARK VINA RESULT:     0.000      5.725      6.661
REMARK INTER + INTRA:          -1.663
REMARK INTER:                   0.000
REMARK INTRA:                  -1.663
REMARK UNBOUND:                -1.663
REMARK  6 active torsions:
REMARK  status: ('A' for Active; 'I' for Inactive)
REMARK    1  A    between atoms: C03_1  and  C10_8 
REMARK    2  A    between atoms: C04_2  and  C08_6 
REMARK    3  A    between atoms: C15_13  and  C18_16 
REMARK    4  A    between atoms: C18_16  and  C20_18 
REMARK    5  A    between atoms: C20_18  and  C21_19 
REMARK    6  A    between atoms: C21_19  and  C22_20 
ROOT
ATOM      1  C08 CBD B1001      -0.003   0.272   3.038  1.00 27.96     0.033 A 
ATOM      2  C11 CBD B1001       1.228  -0.093   2.505  1.00 27.96     0.129 A 
ATOM      3  C12 CBD B1001      -1.025  -0.685   3.121  1.00 27.96     0.129 A 
ATOM      4  C15 CBD B1001       0.431  -2.318   2.071  1.00 27.96    -0.018 A 
ATOM      5  C16 CBD B1001       1.447  -1.373   2.008  1.00 27.96     0.023 A 
ATOM      6  C17 CBD B1001      -0.805  -1.975   2.624  1.00 27.96     0.023 A 
ATOM      7  O01 CBD B1001       2.243   0.872   2.447  1.00 27.96    -0.190 OA
ATOM      8  O02 CBD B1001      -2.282  -0.384   3.668  1.00 27.96    -0.190 OA
ENDROOT
BRANCH   1   9
ATOM      9  C04 CBD B1001      -0.064   1.724   3.571  1.00 27.96     0.051 C 
ATOM     10  C07 CBD B1001      -0.027   1.573   5.076  1.00 27.96    -0.030 C 
ATOM     11  C09 CBD B1001       0.300   2.660   5.732  1.00 27.96    -0.048 C 
ATOM     12  C06 CBD B1001      -0.336   3.998   5.349  1.00 27.96     0.022 C 
ATOM     13  C13 CBD B1001       1.704   2.693   6.328  1.00 27.96     0.026 C 
ATOM     14  C05 CBD B1001      -0.947   4.029   3.931  1.00 27.96     0.009 C 
ATOM     15  C03 CBD B1001      -1.249   2.658   3.301  1.00 27.96     0.027 C 
BRANCH  15  16
ATOM     16  C10 CBD B1001      -1.508   2.935   1.815  1.00 27.96    -0.044 C 
ATOM     17  C19 CBD B1001      -0.793   3.851   1.159  1.00 27.96    -0.009 C 
ATOM     18  C14 CBD B1001      -2.635   2.170   1.092  1.00 27.96     0.026 C 
ENDBRANCH  15  16
ENDBRANCH   1   9
BRANCH   4  19
ATOM     19  C18 CBD B1001       0.696  -3.739   1.513  1.00 27.96     0.026 C 
BRANCH  19  20
ATOM     20  C20 CBD B1001       1.041  -3.630   0.004  1.00 27.96     0.005 C 
BRANCH  20  21
ATOM     21  C21 CBD B1001      -0.218  -3.198  -0.802  1.00 27.96     0.000 C 
BRANCH  21  22
ATOM     22  C22 CBD B1001       0.089  -1.887  -1.563  1.00 27.96     0.000 C 
ATOM     23  C23 CBD B1001      -0.783  -0.746  -0.985  1.00 27.96     0.000 C 
ENDBRANCH  21  22
ENDBRANCH  20  21
ENDBRANCH  19  20
ENDBRANCH   4  19
TORSDOF 6
ENDMDL
MODEL 8
REMARK VINA RESULT:     0.000      6.205      9.042
REMARK INTER + INTRA:          -1.663
REMARK INTER:                   0.000
REMARK INTRA:                  -1.663
REMARK UNBOUND:                -1.663
REMARK  6 active torsions:
REMARK  status: ('A' for Active; 'I' for Inactive)
REMARK    1  A    between atoms: C03_1  and  C10_8 
REMARK    2  A    between atoms: C04_2  and  C08_6 
REMARK    3  A    between atoms: C15_13  and  C18_16 
REMARK    4  A    between atoms: C18_16  and  C20_18 
REMARK    5  A    between atoms: C20_18  and  C21_19 
REMARK    6  A    between atoms: C21_19  and  C22_20 
ROOT
ATOM      1  C08 CBD B1001       6.963  -0.595  -5.701  1.00 27.96     0.033 A 
ATOM      2  C11 CBD B1001       6.236  -1.554  -5.006  1.00 27.96     0.129 A 
ATOM      3  C12 CBD B1001       8.116  -0.982  -6.400  1.00 27.96     0.129 A 
ATOM      4  C15 CBD B1001       7.810  -3.262  -5.626  1.00 27.96    -0.018 A 
ATOM      5  C16 CBD B1001       6.658  -2.878  -4.950  1.00 27.96     0.023 A 
ATOM      6  C17 CBD B1001       8.540  -2.315  -6.347  1.00 27.96     0.023 A 
ATOM      7  O01 CBD B1001       5.076  -1.152  -4.328  1.00 27.96    -0.190 OA
ATOM      8  O02 CBD B1001       8.881  -0.065  -7.138  1.00 27.96    -0.190 OA
ENDROOT
BRANCH   1   9
ATOM      9  C04 CBD B1001       6.336   0.819  -5.684  1.00 27.96     0.051 C 
ATOM     10  C07 CBD B1001       5.753   0.989  -7.070  1.00 27.96    -0.030 C 
ATOM     11  C09 CBD B1001       4.861   1.943  -7.181  1.00 27.96    -0.048 C 
ATOM     12  C06 CBD B1001       5.129   3.310  -6.549  1.00 27.96     0.022 C 
ATOM     13  C13 CBD B1001       3.407   1.498  -7.305  1.00 27.96     0.026 C 
ATOM     14  C05 CBD B1001       6.209   3.300  -5.445  1.00 27.96     0.009 C 
ATOM     15  C03 CBD B1001       7.161   2.090  -5.449  1.00 27.96     0.027 C 
BRANCH  15  16
ATOM     16  C10 CBD B1001       7.886   2.131  -4.099  1.00 27.96    -0.044 C 
ATOM     17  C19 CBD B1001       7.238   2.492  -2.990  1.00 27.96    -0.009 C 
ATOM     18  C14 CBD B1001       9.388   1.788  -4.041  1.00 27.96     0.026 C 
ENDBRANCH  15  16
ENDBRANCH   1   9
BRANCH   4  19
ATOM     19  C18 CBD B1001       8.261  -4.742  -5.552  1.00 27.96     0.026 C 
BRANCH  19  20
ATOM     20  C20 CBD B1001       8.532  -5.112  -4.070  1.00 27.96     0.005 C 
BRANCH  20  21
ATOM     21  C21 CBD B1001       9.795  -4.365  -3.553  1.00 27.96     0.000 C 
BRANCH  21  22
ATOM     22  C22 CBD B1001       9.412  -3.504  -2.326  1.00 27.96     0.000 C 
ATOM     23  C23 CBD B1001       9.563  -2.006  -2.688  1.00 27.96     0.000 C 
ENDBRANCH  21  22
ENDBRANCH  20  21
ENDBRANCH  19  20
ENDBRANCH   4  19
TORSDOF 6
ENDMDL
MODEL 9
REMARK VINA RESULT:     0.000      5.946      8.536
REMARK INTER + INTRA:          -1.663
REMARK INTER:                   0.000
REMARK INTRA:                  -1.663
REMARK UNBOUND:                -1.663
REMARK  6 active torsions:
REMARK  status: ('A' for Active; 'I' for Inactive)
REMARK    1  A    between atoms: C03_1  and  C10_8 
REMARK    2  A    between atoms: C04_2  and  C08_6 
REMARK    3  A    between atoms: C15_13  and  C18_16 
REMARK    4  A    between atoms: C18_16  and  C20_18 
REMARK    5  A    between atoms: C20_18  and  C21_19 
REMARK    6  A    between atoms: C21_19  and  C22_20 
ROOT
ATOM      1  C08 CBD B1001       2.088  -1.470   1.201  1.00 27.96     0.033 A 
ATOM      2  C11 CBD B1001       3.312  -2.127   1.171  1.00 27.96     0.129 A 
ATOM      3  C12 CBD B1001       1.763  -0.677   2.311  1.00 27.96     0.129 A 
ATOM      4  C15 CBD B1001       3.870  -1.285   3.352  1.00 27.96    -0.018 A 
ATOM      5  C16 CBD B1001       4.197  -2.054   2.242  1.00 27.96     0.023 A 
ATOM      6  C17 CBD B1001       2.654  -0.599   3.389  1.00 27.96     0.023 A 
ATOM      7  O01 CBD B1001       3.627  -2.900   0.045  1.00 27.96    -0.190 OA
ATOM      8  O02 CBD B1001       0.553   0.029   2.392  1.00 27.96    -0.190 OA
ENDROOT
BRANCH   1   9
ATOM      9  C04 CBD B1001       1.242  -1.635  -0.083  1.00 27.96     0.051 C 
ATOM     10  C07 CBD B1001       1.367  -0.303  -0.790  1.00 27.96    -0.030 C 
ATOM     11  C09 CBD B1001       1.046  -0.318  -2.060  1.00 27.96    -0.048 C 
ATOM     12  C06 CBD B1001      -0.225  -1.041  -2.513  1.00 27.96     0.022 C 
ATOM     13  C13 CBD B1001       2.204  -0.244  -3.051  1.00 27.96     0.026 C 
ATOM     14  C05 CBD B1001      -0.763  -2.076  -1.503  1.00 27.96     0.009 C 
ATOM     15  C03 CBD B1001      -0.264  -1.922  -0.054  1.00 27.96     0.027 C 
BRANCH  15  16
ATOM     16  C10 CBD B1001      -0.644  -3.227   0.655  1.00 27.96    -0.044 C 
ATOM     17  C19 CBD B1001      -0.556  -4.396   0.019  1.00 27.96    -0.009 C 
ATOM     18  C14 CBD B1001      -1.169  -3.171   2.103  1.00 27.96     0.026 C 
ENDBRANCH  15  16
ENDBRANCH   1   9
BRANCH   4  19
ATOM     19  C18 CBD B1001       4.869  -1.215   4.533  1.00 27.96     0.026 C 
BRANCH  19  20
ATOM     20  C20 CBD B1001       5.086  -2.645   5.094  1.00 27.96     0.005 C 
BRANCH  20  21
ATOM     21  C21 CBD B1001       3.792  -3.145   5.798  1.00 27.96     0.000 C 
BRANCH  21  22
ATOM     22  C22 CBD B1001       3.320  -4.457   5.126  1.00 27.96     0.000 C 
ATOM     23  C23 CBD B1001       1.968  -4.206   4.414  1.00 27.96     0.000 C 
ENDBRANCH  21  22
ENDBRANCH  20  21
ENDBRANCH  19  20
ENDBRANCH   4  19
TORSDOF 6
ENDMDL
