MODEL 1
REMARK VINA RESULT:    -0.000      0.000      0.000
REMARK INTER + INTRA:          -1.663
REMARK INTER:                   0.000
REMARK INTRA:                  -1.663
REMARK UNBOUND:                -1.663
REMARK  6 active torsions:
REMARK  status: ('A' for Active; 'I' for Inactive)
REMARK    1  A    between atoms: C03_1  and  C10_8 
REMARK    2  A    between atoms: C04_2  and  C08_6 
REMARK    3  A    between atoms: C15_13  and  C18_16 
REMARK    4  A    between atoms: C18_16  and  C20_18 
REMARK    5  A    between atoms: C20_18  and  C21_19 
REMARK    6  A    between atoms: C21_19  and  C22_20 
ROOT
ATOM      1  C08 CBD B1001       0.455  -1.440  -4.670  1.00 27.96     0.033 A 
ATOM      2  C11 CBD B1001      -0.886  -1.229  -4.967  1.00 27.96     0.129 A 
ATOM      3  C12 CBD B1001       0.878  -1.390  -3.334  1.00 27.96     0.129 A 
ATOM      4  C15 CBD B1001      -1.387  -0.851  -2.647  1.00 27.96    -0.018 A 
ATOM      5  C16 CBD B1001      -1.805  -0.920  -3.970  1.00 27.96     0.023 A 
ATOM      6  C17 CBD B1001      -0.047  -1.082  -2.329  1.00 27.96     0.023 A 
ATOM      7  O01 CBD B1001      -1.293  -1.301  -6.307  1.00 27.96    -0.190 OA
ATOM      8  O02 CBD B1001       2.214  -1.616  -2.968  1.00 27.96    -0.190 OA
ENDROOT
BRANCH   1   9
ATOM      9  C04 CBD B1001       1.331  -1.801  -5.894  1.00 27.96     0.051 C 
ATOM     10  C07 CBD B1001       1.589  -3.286  -5.746  1.00 27.96    -0.030 C 
ATOM     11  C09 CBD B1001       1.992  -3.887  -6.838  1.00 27.96    -0.048 C 
ATOM     12  C06 CBD B1001       3.079  -3.245  -7.702  1.00 27.96     0.022 C 
ATOM     13  C13 CBD B1001       0.966  -4.771  -7.541  1.00 27.96     0.026 C 
ATOM     14  C05 CBD B1001       3.270  -1.731  -7.463  1.00 27.96     0.009 C 
ATOM     15  C03 CBD B1001       2.716  -1.187  -6.134  1.00 27.96     0.027 C 
BRANCH  15  16
ATOM     16  C10 CBD B1001       2.711   0.339  -6.282  1.00 27.96    -0.044 C 
ATOM     17  C19 CBD B1001       2.390   0.908  -7.445  1.00 27.96    -0.009 C 
ATOM     18  C14 CBD B1001       3.122   1.213  -5.081  1.00 27.96     0.026 C 
ENDBRANCH  15  16
ENDBRANCH   1   9
BRANCH   4  19
ATOM     19  C18 CBD B1001      -2.426  -0.507  -1.552  1.00 27.96     0.026 C 
BRANCH  19  20
ATOM     20  C20 CBD B1001      -3.026   0.893  -1.849  1.00 27.96     0.005 C 
BRANCH  20  21
ATOM     21  C21 CBD B1001      -1.950   1.994  -1.628  1.00 27.96     0.000 C 
BRANCH  21  22
ATOM     22  C22 CBD B1001      -1.761   2.794  -2.939  1.00 27.96     0.000 C 
ATOM     23  C23 CBD B1001      -0.339   2.536  -3.493  1.00 27.96     0.000 C 
ENDBRANCH  21  22
ENDBRANCH  20  21
ENDBRANCH  19  20
ENDBRANCH   4  19
TORSDOF 6
ENDMDL
MODEL 2
REMARK VINA RESULT:    -0.000      5.571      8.820
REMARK INTER + INTRA:          -1.663
REMARK INTER:                   0.000
REMARK INTRA:                  -1.663
REMARK UNBOUND:                -1.663
REMARK  6 active torsions:
REMARK  status: ('A' for Active; 'I' for Inactive)
REMARK    1  A    between atoms: C03_1  and  C10_8 
REMARK    2  A    between atoms: C04_2  and  C08_6 
REMARK    3  A    between atoms: C15_13  and  C18_16 
REMARK    4  A    between atoms: C18_16  and  C20_18 
REMARK    5  A    between atoms: C20_18  and  C21_19 
REMARK    6  A    between atoms: C21_19  and  C22_20 
ROOT
ATOM      1  C08 CBD B1001      -5.481  -1.536  -1.095  1.00 27.96     0.033 A 
ATOM      2  C11 CBD B1001      -4.180  -1.301  -0.665  1.00 27.96     0.129 A 
ATOM      3  C12 CBD B1001      -6.043  -2.808  -0.917  1.00 27.96     0.129 A 
ATOM      4  C15 CBD B1001      -3.957  -3.584   0.052  1.00 27.96    -0.018 A 
ATOM      5  C16 CBD B1001      -3.410  -2.317  -0.109  1.00 27.96     0.023 A 
ATOM      6  C17 CBD B1001      -5.270  -3.831  -0.354  1.00 27.96     0.023 A 
ATOM      7  O01 CBD B1001      -3.642  -0.017  -0.835  1.00 27.96    -0.190 OA
ATOM      8  O02 CBD B1001      -7.357  -3.102  -1.310  1.00 27.96    -0.190 OA
ENDROOT
BRANCH   1   9
ATOM      9  C04 CBD B1001      -6.202  -0.289  -1.661  1.00 27.96     0.051 C 
ATOM     10  C07 CBD B1001      -7.173   0.111  -0.572  1.00 27.96    -0.030 C 
ATOM     11  C09 CBD B1001      -7.629   1.336  -0.660  1.00 27.96    -0.048 C 
ATOM     12  C06 CBD B1001      -8.100   1.874  -2.013  1.00 27.96     0.022 C 
ATOM     13  C13 CBD B1001      -7.066   2.341   0.340  1.00 27.96     0.026 C 
ATOM     14  C05 CBD B1001      -7.563   1.092  -3.231  1.00 27.96     0.009 C 
ATOM     15  C03 CBD B1001      -7.046  -0.328  -2.941  1.00 27.96     0.027 C 
BRANCH  15  16
ATOM     16  C10 CBD B1001      -6.270  -0.749  -4.195  1.00 27.96    -0.044 C 
ATOM     17  C19 CBD B1001      -5.521   0.133  -4.859  1.00 27.96    -0.009 C 
ATOM     18  C14 CBD B1001      -6.395  -2.198  -4.706  1.00 27.96     0.026 C 
ENDBRANCH  15  16
ENDBRANCH   1   9
BRANCH   4  19
ATOM     19  C18 CBD B1001      -3.083  -4.701   0.675  1.00 27.96     0.026 C 
BRANCH  19  20
ATOM     20  C20 CBD B1001      -1.834  -4.920  -0.220  1.00 27.96     0.005 C 
BRANCH  20  21
ATOM     21  C21 CBD B1001      -2.252  -5.558  -1.575  1.00 27.96     0.000 C 
BRANCH  21  22
ATOM     22  C22 CBD B1001      -1.802  -4.637  -2.734  1.00 27.96     0.000 C 
ATOM     23  C23 CBD B1001      -3.053  -4.065  -3.446  1.00 27.96     0.000 C 
ENDBRANCH  21  22
ENDBRANCH  20  21
ENDBRANCH  19  20
ENDBRANCH   4  19
TORSDOF 6
ENDMDL
MODEL 3
REMARK VINA RESULT:    -0.000      4.575      7.642
REMARK INTER + INTRA:          -1.663
REMARK INTER:                   0.000
REMARK INTRA:                  -1.663
REMARK UNBOUND:                -1.663
REMARK  6 active torsions:
REMARK  status: ('A' for Active; 'I' for Inactive)
REMARK    1  A    between atoms: C03_1  and  C10_8 
REMARK    2  A    between atoms: C04_2  and  C08_6 
REMARK    3  A    between atoms: C15_13  and  C18_16 
REMARK    4  A    between atoms: C18_16  and  C20_18 
REMARK    5  A    between atoms: C20_18  and  C21_19 
REMARK    6  A    between atoms: C21_19  and  C22_20 
ROOT
ATOM      1  C08 CBD B1001       2.232   1.089  -0.452  1.00 27.96     0.033 A 
ATOM      2  C11 CBD B1001       1.281   0.087  -0.606  1.00 27.96     0.129 A 
ATOM      3  C12 CBD B1001       2.623   1.840  -1.569  1.00 27.96     0.129 A 
ATOM      4  C15 CBD B1001       1.150   0.513  -2.968  1.00 27.96    -0.018 A 
ATOM      5  C16 CBD B1001       0.750  -0.217  -1.855  1.00 27.96     0.023 A 
ATOM      6  C17 CBD B1001       2.088   1.538  -2.827  1.00 27.96     0.023 A 
ATOM      7  O01 CBD B1001       0.888  -0.642   0.525  1.00 27.96    -0.190 OA
ATOM      8  O02 CBD B1001       3.562   2.879  -1.474  1.00 27.96    -0.190 OA
ENDROOT
BRANCH   1   9
ATOM      9  C04 CBD B1001       2.692   1.312   1.008  1.00 27.96     0.051 C 
ATOM     10  C07 CBD B1001       2.010   2.597   1.425  1.00 27.96    -0.030 C 
ATOM     11  C09 CBD B1001       1.951   2.797   2.719  1.00 27.96    -0.048 C 
ATOM     12  C06 CBD B1001       3.190   2.551   3.582  1.00 27.96     0.022 C 
ATOM     13  C13 CBD B1001       0.587   2.595   3.372  1.00 27.96     0.026 C 
ATOM     14  C05 CBD B1001       4.256   1.649   2.924  1.00 27.96     0.009 C 
ATOM     15  C03 CBD B1001       4.164   1.509   1.393  1.00 27.96     0.027 C 
BRANCH  15  16
ATOM     16  C10 CBD B1001       5.074   0.330   1.031  1.00 27.96    -0.044 C 
ATOM     17  C19 CBD B1001       5.137  -0.746   1.817  1.00 27.96    -0.009 C 
ATOM     18  C14 CBD B1001       5.949   0.416  -0.235  1.00 27.96     0.026 C 
ENDBRANCH  15  16
ENDBRANCH   1   9
BRANCH   4  19
ATOM     19  C18 CBD B1001       0.545   0.160  -4.350  1.00 27.96     0.026 C 
BRANCH  19  20
ATOM     20  C20 CBD B1001       0.901  -1.311  -4.694  1.00 27.96     0.005 C 
BRANCH  20  21
ATOM     21  C21 CBD B1001       2.427  -1.442  -4.967  1.00 27.96     0.000 C 
BRANCH  21  22
ATOM     22  C22 CBD B1001       3.034  -2.474  -3.987  1.00 27.96     0.000 C 
ATOM     23  C23 CBD B1001       4.006  -1.750  -3.023  1.00 27.96     0.000 C 
ENDBRANCH  21  22
ENDBRANCH  20  21
ENDBRANCH  19  20
ENDBRANCH   4  19
TORSDOF 6
ENDMDL
MODEL 4
REMARK VINA RESULT:    -0.000      2.473      6.128
REMARK INTER + INTRA:          -1.663
REMARK INTER:                   0.000
REMARK INTRA:                  -1.663
REMARK UNBOUND:                -1.663
REMARK  6 active torsions:
REMARK  status: ('A' for Active; 'I' for Inactive)
REMARK    1  A    between atoms: C03_1  and  C10_8 
REMARK    2  A    between atoms: C04_2  and  C08_6 
REMARK    3  A    between atoms: C15_13  and  C18_16 
REMARK    4  A    between atoms: C18_16  and  C20_18 
REMARK    5  A    between atoms: C20_18  and  C21_19 
REMARK    6  A    between atoms: C21_19  and  C22_20 
ROOT
ATOM      1  C08 CBD B1001      -1.504  -0.645  -5.146  1.00 27.96     0.033 A 
ATOM      2  C11 CBD B1001      -2.594  -1.464  -4.879  1.00 27.96     0.129 A 
ATOM      3  C12 CBD B1001      -0.923  -0.671  -6.422  1.00 27.96     0.129 A 
ATOM      4  C15 CBD B1001      -2.503  -2.386  -7.096  1.00 27.96    -0.018 A 
ATOM      5  C16 CBD B1001      -3.087  -2.343  -5.837  1.00 27.96     0.023 A 
ATOM      6  C17 CBD B1001      -1.420  -1.554  -7.389  1.00 27.96     0.023 A 
ATOM      7  O01 CBD B1001      -3.173  -1.411  -3.602  1.00 27.96    -0.190 OA
ATOM      8  O02 CBD B1001       0.166   0.147  -6.760  1.00 27.96    -0.190 OA
ENDROOT
BRANCH   1   9
ATOM      9  C04 CBD B1001      -1.106   0.291  -3.979  1.00 27.96     0.051 C 
ATOM     10  C07 CBD B1001      -1.593   1.657  -4.410  1.00 27.96    -0.030 C 
ATOM     11  C09 CBD B1001      -1.701   2.536  -3.444  1.00 27.96    -0.048 C 
ATOM     12  C06 CBD B1001      -0.576   2.675  -2.416  1.00 27.96     0.022 C 
ATOM     13  C13 CBD B1001      -3.118   2.866  -2.986  1.00 27.96     0.026 C 
ATOM     14  C05 CBD B1001       0.366   1.455  -2.335  1.00 27.96     0.009 C 
ATOM     15  C03 CBD B1001       0.350   0.512  -3.552  1.00 27.96     0.027 C 
BRANCH  15  16
ATOM     16  C10 CBD B1001       1.075  -0.760  -3.099  1.00 27.96    -0.044 C 
ATOM     17  C19 CBD B1001       0.910  -1.232  -1.862  1.00 27.96    -0.009 C 
ATOM     18  C14 CBD B1001       2.031  -1.471  -4.077  1.00 27.96     0.026 C 
ENDBRANCH  15  16
ENDBRANCH   1   9
BRANCH   4  19
ATOM     19  C18 CBD B1001      -3.068  -3.371  -8.149  1.00 27.96     0.026 C 
BRANCH  19  20
ATOM     20  C20 CBD B1001      -2.938  -4.818  -7.605  1.00 27.96     0.005 C 
BRANCH  20  21
ATOM     21  C21 CBD B1001      -1.440  -5.235  -7.546  1.00 27.96     0.000 C 
BRANCH  21  22
ATOM     22  C22 CBD B1001      -1.075  -5.620  -6.092  1.00 27.96     0.000 C 
ATOM     23  C23 CBD B1001      -0.061  -4.593  -5.532  1.00 27.96     0.000 C 
ENDBRANCH  21  22
ENDBRANCH  20  21
ENDBRANCH  19  20
ENDBRANCH   4  19
TORSDOF 6
ENDMDL
MODEL 5
REMARK VINA RESULT:    -0.000      4.539      6.825
REMARK INTER + INTRA:          -1.663
REMARK INTER:                   0.000
REMARK INTRA:                  -1.663
REMARK UNBOUND:                -1.663
REMARK  6 active torsions:
REMARK  status: ('A' for Active; 'I' for Inactive)
REMARK    1  A    between atoms: C03_1  and  C10_8 
REMARK    2  A    between atoms: C04_2  and  C08_6 
REMARK    3  A    between atoms: C15_13  and  C18_16 
REMARK    4  A    between atoms: C18_16  and  C20_18 
REMARK    5  A    between atoms: C20_18  and  C21_19 
REMARK    6  A    between atoms: C21_19  and  C22_20 
ROOT
ATOM      1  C08 CBD B1001       4.368   3.110  -2.732  1.00 27.96     0.033 A 
ATOM      2  C11 CBD B1001       4.788   2.974  -1.414  1.00 27.96     0.129 A 
ATOM      3  C12 CBD B1001       4.371   4.381  -3.325  1.00 27.96     0.129 A 
ATOM      4  C15 CBD B1001       5.147   5.344  -1.237  1.00 27.96    -0.018 A 
ATOM      5  C16 CBD B1001       5.161   4.081  -0.658  1.00 27.96     0.023 A 
ATOM      6  C17 CBD B1001       4.750   5.495  -2.567  1.00 27.96     0.023 A 
ATOM      7  O01 CBD B1001       4.796   1.693  -0.844  1.00 27.96    -0.190 OA
ATOM      8  O02 CBD B1001       3.980   4.580  -4.658  1.00 27.96    -0.190 OA
ENDROOT
BRANCH   1   9
ATOM      9  C04 CBD B1001       4.018   1.775  -3.432  1.00 27.96     0.051 C 
ATOM     10  C07 CBD B1001       5.184   1.521  -4.362  1.00 27.96    -0.030 C 
ATOM     11  C09 CBD B1001       5.295   0.286  -4.785  1.00 27.96    -0.048 C 
ATOM     12  C06 CBD B1001       4.053  -0.462  -5.276  1.00 27.96     0.022 C 
ATOM     13  C13 CBD B1001       6.417  -0.543  -4.167  1.00 27.96     0.026 C 
ATOM     14  C05 CBD B1001       2.716   0.140  -4.794  1.00 27.96     0.009 C 
ATOM     15  C03 CBD B1001       2.773   1.600  -4.310  1.00 27.96     0.027 C 
BRANCH  15  16
ATOM     16  C10 CBD B1001       1.447   1.845  -3.580  1.00 27.96    -0.044 C 
ATOM     17  C19 CBD B1001       0.901   0.891  -2.825  1.00 27.96    -0.009 C 
ATOM     18  C14 CBD B1001       0.728   3.197  -3.760  1.00 27.96     0.026 C 
ENDBRANCH  15  16
ENDBRANCH   1   9
BRANCH   4  19
ATOM     19  C18 CBD B1001       5.568   6.563  -0.379  1.00 27.96     0.026 C 
BRANCH  19  20
ATOM     20  C20 CBD B1001       4.613   6.675   0.839  1.00 27.96     0.005 C 
BRANCH  20  21
ATOM     21  C21 CBD B1001       3.190   7.091   0.367  1.00 27.96     0.000 C 
BRANCH  21  22
ATOM     22  C22 CBD B1001       2.171   6.016   0.812  1.00 27.96     0.000 C 
ATOM     23  C23 CBD B1001       1.591   5.314  -0.440  1.00 27.96     0.000 C 
ENDBRANCH  21  22
ENDBRANCH  20  21
ENDBRANCH  19  20
ENDBRANCH   4  19
TORSDOF 6
ENDMDL
MODEL 6
REMARK VINA RESULT:    -0.000      3.782      6.530
REMARK INTER + INTRA:          -1.663
REMARK INTER:                   0.000
REMARK INTRA:                  -1.663
REMARK UNBOUND:                -1.663
REMARK  6 active torsions:
REMARK  status: ('A' for Active; 'I' for Inactive)
REMARK    1  A    between atoms: C03_1  and  C10_8 
REMARK    2  A    between atoms: C04_2  and  C08_6 
REMARK    3  A    between atoms: C15_13  and  C18_16 
REMARK    4  A    between atoms: C18_16  and  C20_18 
REMARK    5  A    between atoms: C20_18  and  C21_19 
REMARK    6  A    between atoms: C21_19  and  C22_20 
ROOT
ATOM      1  C08 CBD B1001       3.777   2.669  -6.451  1.00 27.96     0.033 A 
ATOM      2  C11 CBD B1001       2.393   2.743  -6.548  1.00 27.96     0.129 A 
ATOM      3  C12 CBD B1001       4.390   1.412  -6.342  1.00 27.96     0.129 A 
ATOM      4  C15 CBD B1001       2.206   0.354  -6.361  1.00 27.96    -0.018 A 
ATOM      5  C16 CBD B1001       1.603   1.599  -6.488  1.00 27.96     0.023 A 
ATOM      6  C17 CBD B1001       3.597   0.260  -6.285  1.00 27.96     0.023 A 
ATOM      7  O01 CBD B1001       1.799   4.007  -6.675  1.00 27.96    -0.190 OA
ATOM      8  O02 CBD B1001       5.784   1.270  -6.262  1.00 27.96    -0.190 OA
ENDROOT
BRANCH   1   9
ATOM      9  C04 CBD B1001       4.500   4.032  -6.566  1.00 27.96     0.051 C 
ATOM     10  C07 CBD B1001       5.104   4.022  -7.954  1.00 27.96    -0.030 C 
ATOM     11  C09 CBD B1001       5.448   5.198  -8.415  1.00 27.96    -0.048 C 
ATOM     12  C06 CBD B1001       6.207   6.175  -7.514  1.00 27.96     0.022 C 
ATOM     13  C13 CBD B1001       4.546   5.792  -9.493  1.00 27.96     0.026 C 
ATOM     14  C05 CBD B1001       6.091   5.871  -6.005  1.00 27.96     0.009 C 
ATOM     15  C03 CBD B1001       5.653   4.440  -5.641  1.00 27.96     0.027 C 
BRANCH  15  16
ATOM     16  C10 CBD B1001       5.282   4.488  -4.154  1.00 27.96    -0.044 C 
ATOM     17  C19 CBD B1001       4.657   5.550  -3.643  1.00 27.96    -0.009 C 
ATOM     18  C14 CBD B1001       5.677   3.309  -3.243  1.00 27.96     0.026 C 
ENDBRANCH  15  16
ENDBRANCH   1   9
BRANCH   4  19
ATOM     19  C18 CBD B1001       1.309  -0.907  -6.298  1.00 27.96     0.026 C 
BRANCH  19  20
ATOM     20  C20 CBD B1001       0.370  -0.795  -5.067  1.00 27.96     0.005 C 
BRANCH  20  21
ATOM     21  C21 CBD B1001       1.193  -0.920  -3.753  1.00 27.96     0.000 C 
BRANCH  21  22
ATOM     22  C22 CBD B1001       0.982   0.350  -2.896  1.00 27.96     0.000 C 
ATOM     23  C23 CBD B1001       2.317   1.129  -2.801  1.00 27.96     0.000 C 
ENDBRANCH  21  22
ENDBRANCH  20  21
ENDBRANCH  19  20
ENDBRANCH   4  19
TORSDOF 6
ENDMDL
MODEL 7
REMARK VINA RESULT:    -0.000      9.697     14.161
REMARK INTER + INTRA:          -1.663
REMARK INTER:                   0.000
REMARK INTRA:                  -1.663
REMARK UNBOUND:                -1.663
REMARK  6 active torsions:
REMARK  status: ('A' for Active; 'I' for Inactive)
REMARK    1  A    between atoms: C03_1  and  C10_8 
REMARK    2  A    between atoms: C04_2  and  C08_6 
REMARK    3  A    between atoms: C15_13  and  C18_16 
REMARK    4  A    between atoms: C18_16  and  C20_18 
REMARK    5  A    between atoms: C20_18  and  C21_19 
REMARK    6  A    between atoms: C21_19  and  C22_20 
ROOT
ATOM      1  C08 CBD B1001      -0.886   7.637   4.911  1.00 27.96     0.033 A 
ATOM      2  C11 CBD B1001      -1.256   6.419   4.353  1.00 27.96     0.129 A 
ATOM      3  C12 CBD B1001      -0.360   8.640   4.084  1.00 27.96     0.129 A 
ATOM      4  C15 CBD B1001      -0.528   7.144   2.180  1.00 27.96    -0.018 A 
ATOM      5  C16 CBD B1001      -1.066   6.160   3.000  1.00 27.96     0.023 A 
ATOM      6  C17 CBD B1001      -0.172   8.381   2.720  1.00 27.96     0.023 A 
ATOM      7  O01 CBD B1001      -1.796   5.436   5.193  1.00 27.96    -0.190 OA
ATOM      8  O02 CBD B1001       0.011   9.897   4.583  1.00 27.96    -0.190 OA
ENDROOT
BRANCH   1   9
ATOM      9  C04 CBD B1001      -1.193   7.767   6.422  1.00 27.96     0.051 C 
ATOM     10  C07 CBD B1001      -2.398   8.680   6.484  1.00 27.96    -0.030 C 
ATOM     11  C09 CBD B1001      -3.061   8.646   7.614  1.00 27.96    -0.048 C 
ATOM     12  C06 CBD B1001      -2.300   8.682   8.941  1.00 27.96     0.022 C 
ATOM     13  C13 CBD B1001      -4.400   7.915   7.590  1.00 27.96     0.026 C 
ATOM     14  C05 CBD B1001      -0.812   8.287   8.833  1.00 27.96     0.009 C 
ATOM     15  C03 CBD B1001      -0.198   8.365   7.424  1.00 27.96     0.027 C 
BRANCH  15  16
ATOM     16  C10 CBD B1001       1.136   7.615   7.512  1.00 27.96    -0.044 C 
ATOM     17  C19 CBD B1001       1.246   6.508   8.249  1.00 27.96    -0.009 C 
ATOM     18  C14 CBD B1001       2.365   8.175   6.770  1.00 27.96     0.026 C 
ENDBRANCH  15  16
ENDBRANCH   1   9
BRANCH   4  19
ATOM     19  C18 CBD B1001      -0.327   6.835   0.675  1.00 27.96     0.026 C 
BRANCH  19  20
ATOM     20  C20 CBD B1001       0.640   5.630   0.534  1.00 27.96     0.005 C 
BRANCH  20  21
ATOM     21  C21 CBD B1001       2.075   6.042   0.972  1.00 27.96     0.000 C 
BRANCH  21  22
ATOM     22  C22 CBD B1001       2.540   5.122   2.125  1.00 27.96     0.000 C 
ATOM     23  C23 CBD B1001       2.689   5.960   3.418  1.00 27.96     0.000 C 
ENDBRANCH  21  22
ENDBRANCH  20  21
ENDBRANCH  19  20
ENDBRANCH   4  19
TORSDOF 6
ENDMDL
MODEL 8
REMARK VINA RESULT:    -0.000     10.413     13.057
REMARK INTER + INTRA:          -1.663
REMARK INTER:                   0.000
REMARK INTRA:                  -1.663
REMARK UNBOUND:                -1.663
REMARK  6 active torsions:
REMARK  status: ('A' for Active; 'I' for Inactive)
REMARK    1  A    between atoms: C03_1  and  C10_8 
REMARK    2  A    between atoms: C04_2  and  C08_6 
REMARK    3  A    between atoms: C15_13  and  C18_16 
REMARK    4  A    between atoms: C18_16  and  C20_18 
REMARK    5  A    between atoms: C20_18  and  C21_19 
REMARK    6  A    between atoms: C21_19  and  C22_20 
ROOT
ATOM      1  C08 CBD B1001       4.749  -5.883   4.990  1.00 27.96     0.033 A 
ATOM      2  C11 CBD B1001       4.181  -5.187   3.930  1.00 27.96     0.129 A 
ATOM      3  C12 CBD B1001       6.110  -5.704   5.277  1.00 27.96     0.129 A 
ATOM      4  C15 CBD B1001       6.300  -4.191   3.389  1.00 27.96    -0.018 A 
ATOM      5  C16 CBD B1001       4.947  -4.356   3.119  1.00 27.96     0.023 A 
ATOM      6  C17 CBD B1001       6.882  -4.866   4.464  1.00 27.96     0.023 A 
ATOM      7  O01 CBD B1001       2.815  -5.364   3.669  1.00 27.96    -0.190 OA
ATOM      8  O02 CBD B1001       6.737  -6.362   6.346  1.00 27.96    -0.190 OA
ENDROOT
BRANCH   1   9
ATOM      9  C04 CBD B1001       3.747  -6.737   5.803  1.00 27.96     0.051 C 
ATOM     10  C07 CBD B1001       3.544  -5.959   7.085  1.00 27.96    -0.030 C 
ATOM     11  C09 CBD B1001       2.475  -6.287   7.767  1.00 27.96    -0.048 C 
ATOM     12  C06 CBD B1001       2.136  -7.764   7.985  1.00 27.96     0.022 C 
ATOM     13  C13 CBD B1001       1.313  -5.299   7.720  1.00 27.96     0.026 C 
ATOM     14  C05 CBD B1001       2.823  -8.727   6.992  1.00 27.96     0.009 C 
ATOM     15  C03 CBD B1001       4.056  -8.168   6.260  1.00 27.96     0.027 C 
BRANCH  15  16
ATOM     16  C10 CBD B1001       4.336  -9.149   5.115  1.00 27.96    -0.044 C 
ATOM     17  C19 CBD B1001       3.331  -9.710   4.440  1.00 27.96    -0.009 C 
ATOM     18  C14 CBD B1001       5.795  -9.513   4.776  1.00 27.96     0.026 C 
ENDBRANCH  15  16
ENDBRANCH   1   9
BRANCH   4  19
ATOM     19  C18 CBD B1001       7.136  -3.260   2.476  1.00 27.96     0.026 C 
BRANCH  19  20
ATOM     20  C20 CBD B1001       7.087  -3.804   1.023  1.00 27.96     0.005 C 
BRANCH  20  21
ATOM     21  C21 CBD B1001       7.875  -5.142   0.926  1.00 27.96     0.000 C 
BRANCH  21  22
ATOM     22  C22 CBD B1001       6.929  -6.255   0.415  1.00 27.96     0.000 C 
ATOM     23  C23 CBD B1001       6.720  -7.301   1.537  1.00 27.96     0.000 C 
ENDBRANCH  21  22
ENDBRANCH  20  21
ENDBRANCH  19  20
ENDBRANCH   4  19
TORSDOF 6
ENDMDL
MODEL 9
REMARK VINA RESULT:     0.000      2.722      5.523
REMARK INTER + INTRA:          -1.663
REMARK INTER:                   0.000
REMARK INTRA:                  -1.663
REMARK UNBOUND:                -1.663
REMARK  6 active torsions:
REMARK  status: ('A' for Active; 'I' for Inactive)
REMARK    1  A    between atoms: C03_1  and  C10_8 
REMARK    2  A    between atoms: C04_2  and  C08_6 
REMARK    3  A    between atoms: C15_13  and  C18_16 
REMARK    4  A    between atoms: C18_16  and  C20_18 
REMARK    5  A    between atoms: C20_18  and  C21_19 
REMARK    6  A    between atoms: C21_19  and  C22_20 
ROOT
ATOM      1  C08 CBD B1001      -0.120  -1.918  -4.479  1.00 27.96     0.033 A 
ATOM      2  C11 CBD B1001       0.827  -1.393  -5.350  1.00 27.96     0.129 A 
ATOM      3  C12 CBD B1001      -0.053  -1.592  -3.117  1.00 27.96     0.129 A 
ATOM      4  C15 CBD B1001       1.949  -0.286  -3.537  1.00 27.96    -0.018 A 
ATOM      5  C16 CBD B1001       1.868  -0.595  -4.889  1.00 27.96     0.023 A 
ATOM      6  C17 CBD B1001       0.993  -0.786  -2.650  1.00 27.96     0.023 A 
ATOM      7  O01 CBD B1001       0.732  -1.715  -6.712  1.00 27.96    -0.190 OA
ATOM      8  O02 CBD B1001      -0.992  -2.072  -2.191  1.00 27.96    -0.190 OA
ENDROOT
BRANCH   1   9
ATOM      9  C04 CBD B1001      -1.223  -2.759  -5.165  1.00 27.96     0.051 C 
ATOM     10  C07 CBD B1001      -2.444  -1.864  -5.148  1.00 27.96    -0.030 C 
ATOM     11  C09 CBD B1001      -3.390  -2.205  -5.988  1.00 27.96    -0.048 C 
ATOM     12  C06 CBD B1001      -3.811  -3.672  -6.103  1.00 27.96     0.022 C 
ATOM     13  C13 CBD B1001      -3.540  -1.331  -7.229  1.00 27.96     0.026 C 
ATOM     14  C05 CBD B1001      -2.769  -4.677  -5.565  1.00 27.96     0.009 C 
ATOM     15  C03 CBD B1001      -1.714  -4.099  -4.604  1.00 27.96     0.027 C 
BRANCH  15  16
ATOM     16  C10 CBD B1001      -0.626  -5.173  -4.492  1.00 27.96    -0.044 C 
ATOM     17  C19 CBD B1001      -0.265  -5.889  -5.559  1.00 27.96    -0.009 C 
ATOM     18  C14 CBD B1001       0.024  -5.446  -3.121  1.00 27.96     0.026 C 
ENDBRANCH  15  16
ENDBRANCH   1   9
BRANCH   4  19
ATOM     19  C18 CBD B1001       3.115   0.606  -3.043  1.00 27.96     0.026 C 
BRANCH  19  20
ATOM     20  C20 CBD B1001       4.459  -0.097  -3.369  1.00 27.96     0.005 C 
BRANCH  20  21
ATOM     21  C21 CBD B1001       4.629  -1.365  -2.484  1.00 27.96     0.000 C 
BRANCH  21  22
ATOM     22  C22 CBD B1001       4.798  -2.604  -3.395  1.00 27.96     0.000 C 
ATOM     23  C23 CBD B1001       3.572  -3.534  -3.223  1.00 27.96     0.000 C 
ENDBRANCH  21  22
ENDBRANCH  20  21
ENDBRANCH  19  20
ENDBRANCH   4  19
TORSDOF 6
ENDMDL
